12
Properties=species:S:1:pos:R:3:forces:R:3 energy=-185.90347754 pbc="F F F"
Al    -0.314404638    0.94513816    -1.759604336    -0.093854    -0.973539    0.898101
Al    -0.414659314    1.1265988530000002    1.318893236    -0.238864    0.092897    -0.207675
Al    -2.927175119    0.5407034890000001    -1.830098742    -0.238786    0.214589    -0.081636
F    -3.359630261    0.303575408    -3.589108108    0.013743    0.074966    -0.015251
F    -1.3555139569999999    -0.637907301    -1.784464045    0.079967    -0.194772    0.355261
F    -1.841053287    2.131903603    -1.8583735829999999    0.080464    0.251954    -0.401383
F    -1.898957725    1.011010739    0.22704982399999998    -0.474011    0.498903    0.107331
F    0.858430327    0.819863443    -0.30566851100000003    0.428602    -0.628798    0.006092
F    -0.792490375    2.7495709969999997    2.138635947    -0.567946    0.402769    0.233999
F    0.33347891500000004    -0.374056458    2.186433645    0.809767    -0.361865    -0.284274
F    -4.091645092    0.23858987    -0.46485476500000006    -0.028714    -0.091334    0.028493
F    0.18142922700000008    1.348948537    -3.6470496289999996    0.229631    0.71423    -0.639057
