      12
SCF Done            -185.90347754
Al           -0.328571638         0.869245160        -1.816344336
Al           -0.453972314         1.102518853         1.281126236
Al           -3.033942119         0.523424489        -1.860049742
F            -3.539702261         0.351739408        -3.600433108
F            -1.465268957        -0.641373301        -1.668910045
F            -1.830948287         2.024128603        -2.063472583
F            -2.096056725         1.001665739         0.450271824
F             0.679836327         0.883948443        -0.287409511
F            -0.593588375         2.719391997         2.149958947
F             0.641951915        -0.257994458         1.889272645
F            -4.269799092         0.179168870        -0.580188765
F             0.698578227         1.470544537        -3.238179629
