12
Properties=species:S:1:pos:R:3:forces:R:3 energy=-186.68111042 pbc="F F F"
Al    1.25015268    0.064534717    2.502039273    -0.048673    -0.642473    1.325425
Al    0.9081092000000001    1.6464358    0.253054    1.071538    -1.254776    4.795529
Al    -0.450271162    1.0288564500000001    -2.201577173    1.112806    0.29078    1.463598
F    -1.689275972    -0.429747653    -2.227227206    -1.172513    -1.025433    0.044333
F    2.240766653    -0.698117553    0.8870990519999999    -0.449397    1.181787    -1.209159
F    0.079107539    1.82362089    -3.8472965329999997    0.257004    0.751541    -1.171954
F    -0.30924761    1.797722353    -0.907843849    -0.878765    0.109816    -0.978083
F    2.603093357    2.4027109120000003    -0.330912443    0.043586    0.084645    -0.104299
F    1.395461239    -0.104620195    -1.6824038540000001    -0.507643    -0.323019    -1.174263
F    0.668827317    1.4454756290000002    1.1847788389999998    0.451121    0.13153    -1.685186
F    2.518974369    0.571064476    3.5886186369999997    -1.070471    -0.478105    -0.970211
F    0.066255475    -1.174213352    2.797419271    1.191405    1.173707    -0.335729
