      12
SCF Done            -167.98470029
Al            1.281001062         0.028558116         2.485732437
Al            1.317092200         1.169441800         0.036858000
Al           -0.291107785         0.843225764        -2.285713473
F            -1.710325604        -0.405195344        -2.216100077
F             2.052226592        -0.323094554         0.720132113
F             0.059308384         1.846713654        -3.836829394
F            -0.393800626         1.939253281        -0.799862895
F             2.587159353         2.421298909        -0.322489444
F             1.247636423         0.024867928        -1.667545977
F             0.449991471         1.545566823         1.567091902
F             2.510543130         0.580900019         3.593076209
F             0.057440959        -1.163933859         2.802078986
