      16
SCF Done             -48.68835889
Au            0.749016718         0.426697102         3.552040686
Au            0.400312208        -1.138595287         1.489457110
Au            2.857650265         1.355545285         2.364576822
Au           -0.454819331        -1.595711186        -1.076957585
Au           -1.437397857         1.579582614         2.670957739
Au           -0.922585000         0.825528000         0.189973000
Au            1.399976142         2.228047890         0.323890453
Au           -1.858406771        -2.159822730         2.140190292
Au            1.789612707        -2.639000484        -0.194803683
Au           -2.838710964        -1.149042775         0.024253980
Au            2.569296235        -0.183135565         0.257787257
Au           -2.918513423         0.962038891        -1.594504643
Au            0.980240120         0.548606198        -1.736180749
Au            0.788785586         2.939283263         2.765867585
Au           -3.479526599         1.222516506         1.015114195
Au           -1.148975217        -0.091792760        -3.120276646
