      16
SCF Done             -48.50656712
Au            3.059816250         0.293743099         0.273607771
Au            1.443033807         2.985292433         1.943778308
Au            0.828945109         1.595137540        -0.238988365
Au           -1.034673244         3.425340942         2.494242279
Au            2.520160068         0.779269421         2.726931263
Au            0.291387000        -0.244204000         1.646274000
Au            1.883836326        -1.988459384         0.339924924
Au            0.658047901         0.901837308        -2.732066302
Au            0.161486845         1.432403714         3.790154559
Au           -2.069337019         0.947463822         2.351238497
Au            0.217441239        -2.833133108         2.229511277
Au           -0.988297187        -1.112078611         3.859109449
Au           -0.047184718        -0.890744060        -1.016317039
Au           -3.120147827        -1.450787803         2.443492669
Au           -1.636254329        -2.270150928         0.556075807
Au           -1.602856103         2.395644129         0.213821682
