      16
SCF Done             -48.51549572
Au            1.346391556        -2.142345236         1.383114883
Au            1.581588800        -1.180542574         3.793833102
Au           -0.656089575        -0.670444082         2.597893289
Au            2.696044468        -0.071766591         0.538927117
Au            0.942633000         0.781794000        -1.304693000
Au           -2.703692750         0.574762670        -0.375293200
Au            2.529286747         0.982713375         2.911194163
Au            2.634710016        -2.239471561        -0.929104363
Au           -1.412731488         1.436089505        -2.450980573
Au           -0.606487887        -0.995942083        -0.047013189
Au            0.487406832         1.320394575         1.317906929
Au           -2.742703081        -1.799354948        -1.420088765
Au           -0.631923920        -1.037661522        -2.782184228
Au            2.002222537        -0.897829829        -3.032013277
Au           -2.056786469         1.459818080         1.946323733
Au            0.676657477         1.173581976        -4.023896963
