12
Properties=species:S:1:pos:R:3:forces:R:3 energy=-182.58860351 pbc="F F F"
Al    0.280141972    -2.310267611    -1.822943861    0.085995    0.331279    0.078234
Al    2.0181141300000003    -0.544711256    -0.8155406239999999    -0.309153    -0.070167    -0.150816
Al    -0.323208206    0.295101903    -1.798151083    0.223168    -0.261097    0.072586
F    3.6062642879999998    -0.184300616    -0.040790023    -0.072336    -0.016415    -0.035288
F    -0.16158897400000002    -4.011956893    -2.224798636    0.020114    0.077488    0.018299
F    1.7158606379999999    -1.2130392760000002    -2.672810589    -0.879309    1.90345    -1.818964
F    1.4450954950000001    -0.043836661    -2.66168342    0.039237    -2.063015    -1.856705
F    -1.469627422    1.636379531    -2.171046911    0.052213    -0.061088    0.016984
F    -0.568889486    -1.147388852    -0.439353769    1.455099    0.314674    2.342776
F    0.665153026    -0.8361595089999999    -3.113773181    2.685161    0.624902    -0.323022
F    0.21105699599999997    -0.35506200200000004    0.012736998000000003    -1.19082    -2.373235    0.809084
F    0.48182213400000007    -1.5242696100000002    0.0016118269999999997    -2.109369    1.593224    0.846833
