12
Properties=species:S:1:pos:R:3:forces:R:3 energy=-186.24927087 pbc="F F F"
Al    -1.677869161    2.47830912    -1.224494291    0.237908    0.247537    0.262712
Al    -0.560564855    -0.005150594    -2.376356374    -0.25468    0.046282    0.098023
Al    -2.231434276    -0.34511401799999997    -0.542897737    0.059572    0.110222    -0.246808
F    -0.645492041    3.500996136    -0.094039257    -0.160095    0.198046    -0.109176
F    -3.032520147    2.905094993    -2.379879692    -0.006213    0.129821    0.018409
F    -1.3841332800000001    -1.7022056269999999    -1.731966361    0.039904    -1.2e-05    0.036363
F    -2.540039362    1.416271683    0.061180862    0.009676    -0.028576    0.016041
F    -3.3867461629999998    -0.964532332    0.840552253    0.064669    -0.377454    -0.053616
F    0.777493798    -0.11725584100000008    -3.728904504    0.023071    -0.385918    -0.00797
F    -0.323109925    1.8673391140000002    -2.371474531    0.021914    -0.026086    0.002611
F    -2.4892200570000003    0.41745865099999996    -2.3460219280000003    -0.016749    -0.016832    -0.018386
F    -0.329043068    0.133368339    -0.430084608    -0.018978    0.102972    0.001798
