12
Properties=species:S:1:pos:R:3:forces:R:3 energy=-185.76396009 pbc="F F F"
Al    0.321240572    -2.328446811    -1.666523061    0.100691    -0.147947    -0.348529
Al    1.9709415300000002    -0.571584456    -0.40498922400000004    0.07298    0.131951    0.236036
Al    -0.402822806    0.28005130300000003    -1.388986283    -0.115669    0.208784    0.180844
F    3.537480688    -0.21601421599999998    0.38088997700000005    0.028256    0.010829    0.00797
F    -0.056447574    -4.013464493    -2.2545498360000003    -0.034148    -0.126051    -0.025324
F    2.133492838    -1.706829876    -2.058513789    -0.041403    -0.07063    -0.095453
F    1.472929495    0.7386753389999999    -1.83677142    0.120948    0.159317    -0.156342
F    -1.577894222    1.619164731    -1.7438197109999998    -0.018897    0.03221    -0.012151
F    -1.164668086    -1.3981246520000001    -0.808460569    -0.171725    -0.004521    0.128878
F    -0.087437374    -0.910053909    -2.9809941810000002    0.04531    -0.102049    -0.072
F    0.395698796    0.25060519800000003    0.335762198    0.006612    -0.018185    -0.051786
F    1.056262134    -2.19490001    0.11401922700000003    0.007048    -0.07371    0.207858
