      12
SCF Done            -185.76396009
Al            0.349803572        -2.308412811        -1.991902061
Al            1.999504530        -0.551550456        -0.730368224
Al           -0.374259806         0.300085303        -1.714365283
F             3.561450688        -0.199202216         0.107837977
F            -0.032477574        -3.996652493        -2.527601836
F             2.157462838        -1.690017876        -2.331565789
F             1.496899495         0.755487339        -2.109823420
F            -1.553924222         1.635976731        -2.016871711
F            -1.140698086        -1.381312652        -1.081512569
F            -0.063467374        -0.893241909        -3.254046181
F             0.419668796         0.267417198         0.062710198
F             1.080232134        -2.178088010        -0.159032773
