      12
SCF Done            -181.79053354
Al            0.321084593        -0.432342658         1.921617939
Al            2.594862365        -1.859462272        -0.590935997
Al           -1.104840381        -1.906976058        -1.129915343
F             3.641329407        -0.270279593        -1.207037980
F            -1.971694154        -0.342366388        -2.024753397
F             2.774314295        -3.839514694        -0.479488743
F            -1.258775066        -3.891310402        -1.067036620
F             2.021028897        -1.467881393         1.369451802
F             0.859633664        -1.423008182        -1.687798365
F             0.071357452        -1.285251263         3.711005689
F             0.417000071         1.355631099         1.105609436
F            -1.124111168        -1.508273383         0.911262214
