12
Properties=species:S:1:pos:R:3:forces:R:3 energy=-183.84712308 pbc="F F F"
Al    0.391007593    -0.819563158    1.475781939    0.759162    -3.361658    -4.9147
Al    2.027561365    -1.697747272    -0.40591549699999996    -6.157219    1.464429    1.827496
Al    -0.618144381    -1.731725558    -0.7913463430000001    5.341208    1.612089    3.50261
F    3.110693907    -0.8968325930000001    -0.92531798    -1.535031    -1.935478    0.817825
F    -1.5278906540000001    -0.956404888    -1.601074397    1.286117    -1.899242    1.228811
F    2.621542795    -3.0492776939999997    -0.496992243    -0.344047    2.420079    -0.069989
F    -1.127280566    -3.097423402    -1.04312712    0.288745    2.42821    0.022198
F    1.6665323969999999    -1.336522393    0.964024802    -1.725483    0.610877    -2.078347
F    0.7887651640000001    -1.616047682    -1.184316865    -0.385568    -1.002642    2.73505
F    0.191582952    -0.996186763    2.860261689    0.343848    0.889488    -2.438679
F    0.390977571    0.7028860990000001    1.341775936    -0.102459    -1.887834    0.869727
F    -0.6721116679999999    -1.366556383    0.623327214    2.230726    0.661683    -1.502002
