      12
SCF Done            -173.07304814
Al            0.368655595        -0.710630078         1.619610917
Al            2.187597363        -1.741598254        -0.471798490
Al           -0.751581382        -1.779345540        -0.899983336
F             3.366044911        -0.647031593        -1.049940003
F            -1.743278651        -0.712648889        -1.794275421
F             2.711852787        -3.377559677        -0.500115192
F            -1.204662573        -3.427858385        -1.070680069
F             1.813847396        -1.379711332         1.105067800
F             0.813261164        -1.565482682        -1.356923865
F             0.133947951        -1.097101641         3.264776681
F             0.399142579         0.988173166         1.260578872
F            -0.852405669        -1.413953321         0.716643212
