12
Properties=species:S:1:pos:R:3:forces:R:3 energy=-185.69695683 pbc="F F F"
Al    0.511968572    -2.245496211    -2.3171591609999997    0.342643    0.521214    -0.390896
Al    1.96682753    -0.544289856    -0.609100624    -0.243221    -0.150606    0.11978
Al    -0.432738206    0.311802103    -1.593254783    -0.033374    -0.25177    0.238528
F    3.7180276880000003    -0.25482731599999997    -0.172057723    0.141486    0.030501    -0.059119
F    -0.480644974    -3.9394137929999995    -1.429732336    -0.240425    -0.468839    0.171597
F    2.3089248380000003    -1.743908576    -2.423759389    -0.011515    0.040929    0.008822
F    1.398864095    0.524497239    -2.07668762    0.005372    0.029028    0.022834
F    -1.475732822    1.600058131    -2.3803935110000003    -0.031092    0.110395    -0.147709
F    -1.019349386    -1.393328852    -1.189784369    0.017473    0.057987    -0.001181
F    -0.104151974    -0.8779444089999999    -3.423730281    0.025585    0.026274    0.025518
F    0.422527296    0.444474498    0.208451698    -0.001151    0.000361    0.008317
F    1.072063934    -2.13682781    -0.323452173    0.028219    0.054527    0.003509
