12
Properties=species:S:1:pos:R:3:forces:R:3 energy=-187.38518821 pbc="F F F"
Al    1.29308668    0.036752317    2.438310073    0.0    0.0    0.0
Al    1.45455    0.981917    -0.177052    0.0    0.0    -0.0
Al    -0.308642562    0.8235932499999999    -2.3277747730000002    0.0    0.0    -0.0
F    -1.909690172    -0.09100045300000004    -2.092333606    -0.0    -0.0    0.0
F    2.4129202530000002    -0.34347495299999997    0.860982452    0.0    -0.0    0.0
F    0.042152139    1.8293272900000002    -3.793821333    -0.0    -0.0    0.0
F    -0.36313881000000003    1.6088257529999999    -0.599285049    -0.0    0.0    -0.0
F    2.413688557    2.624099512    -0.22827744300000002    0.0    0.0    -0.0
F    1.4821572390000002    0.113755405    -1.9085792540000002    -0.0    -0.0    -0.0
F    0.30687511700000003    1.279683429    1.394401039    -0.0    -0.0    0.0
F    2.5364839690000003    0.604001076    3.628285437    -0.0    -0.0    0.0
F    -0.21857732500000002    -0.9217513519999999    2.939716071    -0.0    -0.0    -0.0
