12
Properties=species:S:1:pos:R:3:forces:R:3 energy=-186.55446806 pbc="F F F"
Al    -0.513538838    0.90141696    -1.5487141359999999    0.058805    -0.098071    -0.031592
Al    -0.264011514    1.126804253    1.457274436    0.009991    -0.083213    -0.076634
Al    -3.164172719    0.470274489    -2.281674142    -0.014129    0.05762    0.070726
F    -3.729915261    0.48774460799999997    -3.931317908    -0.028008    0.000126    -0.086564
F    -1.566820957    -0.618162301    -2.043093245    0.066156    -0.018234    -0.010688
F    -2.041922887    2.0173316029999997    -1.848254583    -0.070955    0.062577    -0.003446
F    -1.708513125    0.429381939    0.415255624    -0.104803    -0.039862    -0.051286
F    0.676036327    1.365650243    -0.215501911    0.006163    0.002607    -0.007661
F    -0.46754697500000003    2.841161997    2.045623747    -0.003242    0.259836    0.079398
F    0.747083915    -0.098738658    2.3236732449999997    0.101974    -0.136617    0.109809
F    -4.121496092    0.21428287000000001    -0.6732795650000001    -0.024506    -0.013865    0.014656
F    0.587334627    1.088625937    -3.048598229    0.002554    0.007097    -0.006719
