12
-186.39349496
Al		-0.078733273		1.64098104		2.155548938
Al		2.527030562		2.599657175		1.769172953
Al		1.361355326		2.660894626		-0.64798992
F		1.000904778		3.093687922		2.835705179
F		-1.576371421		2.68349747		2.176228302
F		-0.493290167		-0.026199456		2.752687024
F		1.811146167		0.874893263		1.933370191
F		2.961713089		1.859118315		-0.073733028
F		1.087316335		3.035327323		-2.396687972
F		1.747005314		4.019651335		0.633170377
F		4.108362768		3.125005815		2.458563782
F		-0.010537189		1.800823516		0.212313405
