12
-186.39349496
Al		-0.078913843		1.641025926		2.155615649
Al		2.527388519		2.59805435		1.769912534
Al		1.361998535		2.660129635		-0.648193977
F		1.000836078		3.093838219		2.835742961
F		-1.575954322		2.683231316		2.176212684
F		-0.493328459		-0.026157711		2.752674337
F		1.81151877		0.876307478		1.933228318
F		2.960992177		1.859583414		-0.073939302
F		1.087255162		3.035437978		-2.396926292
F		1.746840404		4.020633781		0.633195472
F		4.107827868		3.124906866		2.458317911
F		-0.01071586		1.800792253		0.212393529
