12
-186.39349496
Al		-0.079274983		1.641115698		2.155749071
Al		2.528104433		2.5948487		1.771391696
Al		1.363284953		2.658599653		-0.648602091
F		1.000698678		3.094138813		2.835818525
F		-1.575120124		2.682699008		2.176181448
F		-0.493405043		-0.026074221		2.752648963
F		1.812263976		0.879135908		1.932944572
F		2.959550353		1.860513612		-0.07435185
F		1.087132816		3.035659288		-2.397402932
F		1.746510584		4.022598673		0.633245662
F		4.106758068		3.124708968		2.457826169
F		-0.011073202		1.800729727		0.212553777
