12
-186.39349496
Al		-0.079455553		1.641160584		2.155815782
Al		2.52846239		2.593245875		1.772131277
Al		1.363928162		2.657834662		-0.648806148
F		1.000629978		3.09428911		2.835856307
F		-1.574703025		2.682432854		2.17616583
F		-0.493443335		-0.026032476		2.752636276
F		1.812636579		0.880550123		1.932802699
F		2.958829441		1.860978711		-0.074558124
F		1.087071643		3.035769943		-2.397641252
F		1.746345674		4.023581119		0.633270757
F		4.106223168		3.124610019		2.457580298
F		-0.011251873		1.800698464		0.212633901
