12
-186.39349496
Al		-0.079515743		1.641175546		2.155838019
Al		2.528581709		2.5927116		1.772377804
Al		1.364142565		2.657579665		-0.648874167
F		1.000607078		3.094339209		2.835868901
F		-1.574563992		2.682344136		2.176160624
F		-0.493456099		-0.026018561		2.752632047
F		1.81276078		0.881021528		1.932755408
F		2.958589137		1.861133744		-0.074626882
F		1.087051252		3.035806828		-2.397720692
F		1.746290704		4.023908601		0.633279122
F		4.106044868		3.124577036		2.457498341
F		-0.01131143		1.800688043		0.212660609
