12
-186.39349496
Al		-0.079756503		1.641235394		2.155926967
Al		2.529058985		2.5905745		1.773363912
Al		1.365000177		2.656559677		-0.649146243
F		1.000515478		3.094539605		2.835919277
F		-1.57400786		2.681989264		2.1761398
F		-0.493507155		-0.025962901		2.752615131
F		1.813257584		0.882907148		1.932566244
F		2.957627921		1.861753876		-0.074901914
F		1.086969688		3.035954368		-2.398038452
F		1.746070824		4.025218529		0.633312582
F		4.105331668		3.124445104		2.457170513
F		-0.011549658		1.800646359		0.212767441
