12
-186.39349496
Al		-0.079876883		1.641265318		2.155971441
Al		2.529297623		2.58950595		1.773856966
Al		1.365428983		2.656049683		-0.649282281
F		1.000469678		3.094639803		2.835944465
F		-1.573729794		2.681811828		2.176129388
F		-0.493532683		-0.025935071		2.752606673
F		1.813505986		0.883849958		1.932471662
F		2.957147313		1.862063942		-0.07503943
F		1.086928906		3.036028138		-2.398197332
F		1.745960884		4.025873493		0.633329312
F		4.104975068		3.124379138		2.457006599
F		-0.011668772		1.800625517		0.212820857
