12
-186.39349496
Al		-0.080418593		1.641399976		2.156171574
Al		2.530371494		2.584697475		1.776075709
Al		1.36735861		2.65375471		-0.649894452
F		1.000263578		3.095090694		2.836057811
F		-1.572478497		2.681013366		2.176082534
F		-0.493647559		-0.025809836		2.752568612
F		1.814623795		0.888092603		1.932046043
F		2.954984577		1.863459239		-0.075658252
F		1.086745387		3.036360103		-2.398912292
F		1.745466154		4.028820831		0.633404597
F		4.103370368		3.124082291		2.456268986
F		-0.012204785		1.800531728		0.213061229
