12
-186.39349496
Al		-0.080478783		1.641414938		2.156193811
Al		2.530490813		2.5841632		1.776322236
Al		1.367573013		2.653499713		-0.649962471
F		1.000240678		3.095140793		2.836070405
F		-1.572339464		2.680924648		2.176077328
F		-0.493660323		-0.025795921		2.752564383
F		1.814747996		0.888564008		1.931998752
F		2.954744273		1.863614272		-0.07572701
F		1.086724996		3.036396988		-2.398991732
F		1.745411184		4.029148313		0.633412962
F		4.103192068		3.124049308		2.456187029
F		-0.012264342		1.800521307		0.213087937
