12
-186.39349496
Al		-0.080599163		1.641444862		2.156238285
Al		2.530729451		2.58309465		1.77681529
Al		1.368001819		2.652989719		-0.650098509
F		1.000194878		3.095240991		2.836095593
F		-1.572061398		2.680747212		2.176066916
F		-0.493685851		-0.025768091		2.752555925
F		1.814996398		0.889506818		1.93190417
F		2.954263665		1.863924338		-0.075864526
F		1.086684214		3.036470758		-2.399150612
F		1.745301244		4.029803277		0.633429692
F		4.102835468		3.123983342		2.456023115
F		-0.012383456		1.800500465		0.213141353
