12
-186.39349496
Al		-0.080719543		1.641474786		2.156282759
Al		2.530968089		2.5820261		1.777308344
Al		1.368430625		2.652479725		-0.650234547
F		1.000149078		3.095341189		2.836120781
F		-1.571783332		2.680569776		2.176056504
F		-0.493711379		-0.025740261		2.752547467
F		1.8152448		0.890449628		1.931809588
F		2.953783057		1.864234404		-0.076002042
F		1.086643432		3.036544528		-2.399309492
F		1.745191304		4.030458241		0.633446422
F		4.102478868		3.123917376		2.455859201
F		-0.01250257		1.800479623		0.213194769
