12
-186.39349496
Al		-0.080900113		1.641519672		2.15634947
Al		2.531326046		2.580423275		1.778047925
Al		1.369073834		2.651714734		-0.650438604
F		1.000080378		3.095491486		2.836158563
F		-1.571366233		2.680303622		2.176040886
F		-0.493749671		-0.025698516		2.75253478
F		1.815617403		0.891863843		1.931667715
F		2.953062145		1.864699503		-0.076208316
F		1.086582259		3.036655183		-2.399547812
F		1.745026394		4.031440687		0.633471517
F		4.101943968		3.123818427		2.45561333
F		-0.012681241		1.80044836		0.213274893
