12
-186.39349496
Al		-0.081321443		1.641624406		2.156505129
Al		2.532161279		2.57668335		1.779773614
Al		1.370574655		2.649929755		-0.650914737
F		0.999920078		3.095842179		2.836246721
F		-1.570393002		2.679682596		2.176004444
F		-0.493839019		-0.025601111		2.752505177
F		1.81648681		0.895163678		1.931336678
F		2.951380017		1.865784734		-0.076689622
F		1.086439522		3.036913378		-2.400103892
F		1.744641604		4.033733061		0.633530072
F		4.100695868		3.123587546		2.455039631
F		-0.01309814		1.800375413		0.213461849
