12
-186.39349496
Al		-0.081502013		1.641669292		2.15657184
Al		2.532519236		2.575080525		1.780513195
Al		1.371217864		2.649164764		-0.651118794
F		0.999851378		3.095992476		2.836284503
F		-1.569975903		2.679416442		2.175988826
F		-0.493877311		-0.025559366		2.75249249
F		1.816859413		0.896577893		1.931194805
F		2.950659105		1.866249833		-0.076895896
F		1.086378349		3.037024033		-2.400342212
F		1.744476694		4.034715507		0.633555167
F		4.100160968		3.123488597		2.45479376
F		-0.013276811		1.80034415		0.213541973
