12
-186.39349496
Al		-0.081682583		1.641714178		2.156638551
Al		2.532877193		2.5734777		1.781252776
Al		1.371861073		2.648399773		-0.651322851
F		0.999782678		3.096142773		2.836322285
F		-1.569558804		2.679150288		2.175973208
F		-0.493915603		-0.025517621		2.752479803
F		1.817232016		0.897992108		1.931052932
F		2.949938193		1.866714932		-0.07710217
F		1.086317176		3.037134688		-2.400580532
F		1.744311784		4.035697953		0.633580262
F		4.099626068		3.123389648		2.454547889
F		-0.013455482		1.800312887		0.213622097
