12
-186.39349496
Al		-0.081742773		1.64172914		2.156660788
Al		2.532996512		2.572943425		1.781499303
Al		1.372075476		2.648144776		-0.65139087
F		0.999759778		3.096192872		2.836334879
F		-1.569419771		2.67906157		2.175968002
F		-0.493928367		-0.025503706		2.752475574
F		1.817356217		0.898463513		1.931005641
F		2.949697889		1.866869965		-0.077170928
F		1.086296785		3.037171573		-2.400659972
F		1.744256814		4.036025435		0.633588627
F		4.099447768		3.123356665		2.454465932
F		-0.013515039		1.800302466		0.213648805
