12
-186.39349496
Al		-0.081802963		1.641744102		2.156683025
Al		2.533115831		2.57240915		1.78174583
Al		1.372289879		2.647889779		-0.651458889
F		0.999736878		3.096242971		2.836347473
F		-1.569280738		2.678972852		2.175962796
F		-0.493941131		-0.025489791		2.752471345
F		1.817480418		0.898934918		1.93095835
F		2.949457585		1.867024998		-0.077239686
F		1.086276394		3.037208458		-2.400739412
F		1.744201844		4.036352917		0.633596992
F		4.099269468		3.123323682		2.454383975
F		-0.013574596		1.800292045		0.213675513
