12
-186.39349496
Al		-0.081923343		1.641774026		2.156727499
Al		2.533354469		2.5713406		1.782238884
Al		1.372718685		2.647379785		-0.651594927
F		0.999691078		3.096343169		2.836372661
F		-1.569002672		2.678795416		2.175952384
F		-0.493966659		-0.025461961		2.752462887
F		1.81772882		0.899877728		1.930863768
F		2.948976977		1.867335064		-0.077377202
F		1.086235612		3.037282228		-2.400898292
F		1.744091904		4.037007881		0.633613722
F		4.098912868		3.123257716		2.454220061
F		-0.01369371		1.800271203		0.213728929
