12
-186.39349496
Al		-0.081983533		1.641788988		2.156749736
Al		2.533473788		2.570806325		1.782485411
Al		1.372933088		2.647124788		-0.651662946
F		0.999668178		3.096393268		2.836385255
F		-1.568863639		2.678706698		2.175947178
F		-0.493979423		-0.025448046		2.752458658
F		1.817853021		0.900349133		1.930816477
F		2.948736673		1.867490097		-0.07744596
F		1.086215221		3.037319113		-2.400977732
F		1.744036934		4.037335363		0.633622087
F		4.098734568		3.123224733		2.454138104
F		-0.013753267		1.800260782		0.213755637
