12
-186.39349496
Al		-0.078311943		1.640876306		2.155393279
Al		2.526195329		2.6033971		1.767447264
Al		1.359854505		2.662679605		-0.647513787
F		1.001065078		3.093337229		2.835617021
F		-1.577344652		2.684118496		2.176264744
F		-0.493200819		-0.026296861		2.752716627
F		1.81027676		0.871593428		1.933701228
F		2.963395217		1.858033084		-0.073251722
F		1.087459072		3.035069128		-2.396131892
F		1.747390104		4.017358961		0.633111822
F		4.109610868		3.125236696		2.459137481
F		-0.01012029		1.800896463		0.212126449
