12
-186.39349496
Al		-0.082404863		1.641893722		2.156905395
Al		2.534309021		2.5670664		1.7842111
Al		1.374433909		2.645339809		-0.652139079
F		0.999507878		3.096743961		2.836473413
F		-1.567890408		2.678085672		2.175910736
F		-0.494068771		-0.025350641		2.752429055
F		1.818722428		0.903648968		1.93048544
F		2.947054545		1.868575328		-0.077927266
F		1.086072484		3.037577308		-2.401533812
F		1.743652144		4.039627737		0.633680642
F		4.097486468		3.122993852		2.453564405
F		-0.014170166		1.800187835		0.213942593
