12
-186.39349496
Al		-0.082585433		1.641938608		2.156972106
Al		2.534666978		2.565463575		1.784950681
Al		1.375077118		2.644574818		-0.652343136
F		0.999439178		3.096894258		2.836511195
F		-1.567473309		2.677819518		2.175895118
F		-0.494107063		-0.025308896		2.752416368
F		1.819095031		0.905063183		1.930343567
F		2.946333633		1.869040427		-0.07813354
F		1.086011311		3.037687963		-2.401772132
F		1.743487234		4.040610183		0.633705737
F		4.096951568		3.122894903		2.453318534
F		-0.014348837		1.800156572		0.214022717
