12
-186.39349496
Al		-0.082705813		1.641968532		2.15701658
Al		2.534905616		2.564395025		1.785443735
Al		1.375505924		2.644064824		-0.652479174
F		0.999393378		3.096994456		2.836536383
F		-1.567195243		2.677642082		2.175884706
F		-0.494132591		-0.025281066		2.75240791
F		1.819343433		0.906005993		1.930248985
F		2.945853025		1.869350493		-0.078271056
F		1.085970529		3.037761733		-2.401931012
F		1.743377294		4.041265147		0.633722467
F		4.096594968		3.122828937		2.45315462
F		-0.014467951		1.80013573		0.214076133
