12
-186.39349496
Al		-0.082826193		1.641998456		2.157061054
Al		2.535144254		2.563326475		1.785936789
Al		1.37593473		2.64355483		-0.652615212
F		0.999347578		3.097094654		2.836561571
F		-1.566917177		2.677464646		2.175874294
F		-0.494158119		-0.025253236		2.752399452
F		1.819591835		0.906948803		1.930154403
F		2.945372417		1.869660559		-0.078408572
F		1.085929747		3.037835503		-2.402089892
F		1.743267354		4.041920111		0.633739197
F		4.096238368		3.122762971		2.452990706
F		-0.014587065		1.800114888		0.214129549
