12
-186.39349496
Al		-0.083307713		1.642118152		2.15723895
Al		2.536098806		2.559052275		1.787909005
Al		1.377649954		2.641514854		-0.653159364
F		0.999164378		3.097495446		2.836662323
F		-1.565804913		2.676754902		2.175832646
F		-0.494260231		-0.025141916		2.75236562
F		1.820585443		0.910720043		1.929776075
F		2.943449985		1.870900823		-0.078958636
F		1.085766619		3.038130583		-2.402725412
F		1.742827594		4.044539967		0.633806117
F		4.094811968		3.122499107		2.45233505
F		-0.015063521		1.80003152		0.214343213
