12
-186.39349496
Al		-0.083428093		1.642148076		2.157283424
Al		2.536337444		2.557983725		1.788402059
Al		1.37807876		2.64100486		-0.653295402
F		0.999118578		3.097595644		2.836687511
F		-1.565526847		2.676577466		2.175822234
F		-0.494285759		-0.025114086		2.752357162
F		1.820833845		0.911662853		1.929681493
F		2.942969377		1.871210889		-0.079096152
F		1.085725837		3.038204353		-2.402884292
F		1.742717654		4.045194931		0.633822847
F		4.094455368		3.122433141		2.452171136
F		-0.015182635		1.800010678		0.214396629
