12
-186.39349496
Al		-0.083548473		1.642178		2.157327898
Al		2.536576082		2.556915175		1.788895113
Al		1.378507566		2.640494866		-0.65343144
F		0.999072778		3.097695842		2.836712699
F		-1.565248781		2.67640003		2.175811822
F		-0.494311287		-0.025086256		2.752348704
F		1.821082247		0.912605663		1.929586911
F		2.942488769		1.871520955		-0.079233668
F		1.085685055		3.038278123		-2.403043172
F		1.742607714		4.045849895		0.633839577
F		4.094098768		3.122367175		2.452007222
F		-0.015301749		1.799989836		0.214450045
