12
-186.39349496
Al		-0.083608663		1.642192962		2.157350135
Al		2.536695401		2.5563809		1.78914164
Al		1.378721969		2.640239869		-0.653499459
F		0.999049878		3.097745941		2.836725293
F		-1.565109748		2.676311312		2.175806616
F		-0.494324051		-0.025072341		2.752344475
F		1.821206448		0.913077068		1.92953962
F		2.942248465		1.871675988		-0.079302426
F		1.085664664		3.038315008		-2.403122612
F		1.742552744		4.046177377		0.633847942
F		4.093920468		3.122334192		2.451925265
F		-0.015361306		1.799979415		0.214476753
