12
-186.39349496
Al		-0.083789233		1.642237848		2.157416846
Al		2.537053358		2.554778075		1.789881221
Al		1.379365178		2.639474878		-0.653703516
F		0.998981178		3.097896238		2.836763075
F		-1.564692649		2.676045158		2.175790998
F		-0.494362343		-0.025030596		2.752331788
F		1.821579051		0.914491283		1.929397747
F		2.941527553		1.872141087		-0.0795087
F		1.085603491		3.038425663		-2.403360932
F		1.742387834		4.047159823		0.633873037
F		4.093385568		3.122235243		2.451679394
F		-0.015539977		1.799948152		0.214556877
