12
-186.39349496
Al		-0.077830423		1.64075661		2.155215383
Al		2.525240777		2.6076713		1.765475048
Al		1.358139281		2.664719581		-0.646969635
F		1.001248278		3.092936437		2.835516269
F		-1.578456916		2.68482824		2.176306392
F		-0.493098707		-0.026408181		2.752750459
F		1.809283152		0.867822188		1.934079556
F		2.965317649		1.85679282		-0.072701658
F		1.0876222		3.034774048		-2.395496372
F		1.747829864		4.014739105		0.633044902
F		4.111037268		3.12550056		2.459793137
F		-0.009643834		1.800979831		0.211912785
