12
-186.39349496
Al		-0.077288713		1.640621952		2.15501525
Al		2.524166906		2.612479775		1.763256305
Al		1.356209654		2.667014554		-0.646357464
F		1.001454378		3.092485546		2.835402923
F		-1.579708213		2.685626702		2.176353246
F		-0.492983831		-0.026533416		2.75278852
F		1.808165343		0.863579543		1.934505175
F		2.967480385		1.855397523		-0.072082836
F		1.087805719		3.034442083		-2.394781412
F		1.748324594		4.011791767		0.632969617
F		4.112641968		3.125797407		2.46053075
F		-0.009107821		1.80107362		0.211672413
