12
-186.39349496
Al		-0.077228523		1.64060699		2.154993013
Al		2.524047587		2.61301405		1.763009778
Al		1.355995251		2.667269551		-0.646289445
F		1.001477278		3.092435447		2.835390329
F		-1.579847246		2.68571542		2.176358452
F		-0.492971067		-0.026547331		2.752792749
F		1.808041142		0.863108138		1.934552466
F		2.967720689		1.85524249		-0.072014078
F		1.08782611		3.034405198		-2.394701972
F		1.748379564		4.011464285		0.632961252
F		4.112820268		3.12583039		2.460612707
F		-0.009048264		1.801084041		0.211645705
