12
-186.39349496
Al		-0.076385863		1.640397522		2.154681695
Al		2.522377121		2.6204939		1.7595584
Al		1.352993609		2.670839509		-0.645337179
F		1.001797878		3.091734061		2.835214013
F		-1.581793708		2.686957472		2.176431336
F		-0.492792371		-0.026742141		2.752851955
F		1.806302328		0.856508468		1.93521454
F		2.971084945		1.853072028		-0.071051466
F		1.088111584		3.033888808		-2.393589812
F		1.749149144		4.006879537		0.632844142
F		4.115316468		3.126292152		2.461760105
F		-0.008214466		1.801229935		0.211271793
