12
-186.39349496
Al		-0.076325673		1.64038256		2.154659458
Al		2.522257802		2.621028175		1.759311873
Al		1.352779206		2.671094506		-0.64526916
F		1.001820778		3.091683962		2.835201419
F		-1.581932741		2.68704619		2.176436542
F		-0.492779607		-0.026756056		2.752856184
F		1.806178127		0.856037063		1.935261831
F		2.971325249		1.852916995		-0.070982708
F		1.088131975		3.033851923		-2.393510372
F		1.749204114		4.006552055		0.632835777
F		4.115494768		3.126325135		2.461842062
F		-0.008154909		1.801240356		0.211245085
