12
-186.39349496
Al		-0.076024723		1.64030775		2.154548273
Al		2.521661207		2.62369955		1.758079238
Al		1.351707191		2.672369491		-0.644929065
F		1.001935278		3.091433467		2.835138449
F		-1.582627906		2.68748978		2.176462572
F		-0.492715787		-0.026825631		2.752877329
F		1.805557122		0.853680038		1.935498286
F		2.972526769		1.85214183		-0.070638918
F		1.08823393		3.033667498		-2.393113172
F		1.749478964		4.004914645		0.632793952
F		4.116386268		3.12649005		2.462251847
F		-0.007857124		1.801292461		0.211111545
