12
-186.39349496
Al		-0.075964533		1.640292788		2.154526036
Al		2.521541888		2.624233825		1.757832711
Al		1.351492788		2.672624488		-0.644861046
F		1.001958178		3.091383368		2.835125855
F		-1.582766939		2.687578498		2.176467778
F		-0.492703023		-0.026839546		2.752881558
F		1.805432921		0.853208633		1.935545577
F		2.972767073		1.851986797		-0.07057016
F		1.088254321		3.033630613		-2.393033732
F		1.749533934		4.004587163		0.632785587
F		4.116564568		3.126523033		2.462333804
F		-0.007797567		1.801302882		0.211084837
