12
-186.39349496
Al		-0.075844153		1.640262864		2.154481562
Al		2.52130325		2.625302375		1.757339657
Al		1.351063982		2.673134482		-0.644725008
F		1.002003978		3.09128317		2.835100667
F		-1.583045005		2.687755934		2.17647819
F		-0.492677495		-0.026867376		2.752890016
F		1.805184519		0.852265823		1.935640159
F		2.973247681		1.851676731		-0.070432644
F		1.088295103		3.033556843		-2.392874852
F		1.749643874		4.003932199		0.632768857
F		4.116921168		3.126588999		2.462497718
F		-0.007678453		1.801323724		0.211031421
