12
-186.39349496
Al		-0.075663583		1.640217978		2.154414851
Al		2.520945293		2.6269052		1.756600076
Al		1.350420773		2.673899473		-0.644520951
F		1.002072678		3.091132873		2.835062885
F		-1.583462104		2.688022088		2.176493808
F		-0.492639203		-0.026909121		2.752902703
F		1.804811916		0.850851608		1.935782032
F		2.973968593		1.851211632		-0.07022637
F		1.088356276		3.033446188		-2.392636532
F		1.749808784		4.002949753		0.632743762
F		4.117456068		3.126687948		2.462743589
F		-0.007499782		1.801354987		0.210951297
