12
-186.39349496
Al		-0.077649853		1.640711724		2.155148672
Al		2.52488282		2.609274125		1.764735467
Al		1.357496072		2.665484572		-0.646765578
F		1.001316978		3.09278614		2.835478487
F		-1.578874015		2.685094394		2.17632201
F		-0.493060415		-0.026449926		2.752763146
F		1.808910549		0.866407973		1.934221429
F		2.966038561		1.856327721		-0.072495384
F		1.087683373		3.034663393		-2.395258052
F		1.747994774		4.013756659		0.633019807
F		4.111572168		3.125599509		2.460039008
F		-0.009465163		1.801011094		0.211832661
