12
-186.39349496
Al		-0.075422823		1.64015813		2.154325903
Al		2.520468017		2.6290423		1.755613968
Al		1.349563161		2.674919461		-0.644248875
F		1.002164278		3.090932477		2.835012509
F		-1.584018236		2.68837696		2.176514632
F		-0.492588147		-0.026964781		2.752919619
F		1.804315112		0.848965988		1.935971196
F		2.974929809		1.8505915		-0.069951338
F		1.08843784		3.033298648		-2.392318772
F		1.750028664		4.001639825		0.632710302
F		4.118169268		3.12681988		2.463071417
F		-0.007261554		1.801396671		0.210844465
