12
-186.39349496
Al		-0.075362633		1.640143168		2.154303666
Al		2.520348698		2.629576575		1.755367441
Al		1.349348758		2.675174458		-0.644180856
F		1.002187178		3.090882378		2.834999915
F		-1.584157269		2.688465678		2.176519838
F		-0.492575383		-0.026978696		2.752923848
F		1.804190911		0.848494583		1.936018487
F		2.975170113		1.850436467		-0.06988258
F		1.088458231		3.033261763		-2.392239332
F		1.750083634		4.001312343		0.632701937
F		4.118347568		3.126852863		2.463153374
F		-0.007201997		1.801407092		0.210817757
