12
-186.39349496
Al		-0.075001493		1.640053396		2.154170244
Al		2.519632784		2.632782225		1.753888279
Al		1.34806234		2.67670444		-0.643772742
F		1.002324578		3.090581784		2.834924351
F		-1.584991467		2.688997986		2.176551074
F		-0.492498799		-0.027062186		2.752949222
F		1.803445705		0.845666153		1.936302233
F		2.976611937		1.849506269		-0.069470032
F		1.088580577		3.033040453		-2.391762692
F		1.750413454		3.999347451		0.632651747
F		4.119417368		3.127050761		2.463645116
F		-0.006844655		1.801469618		0.210657509
