12
-186.39349496
Al		-0.074881113		1.640023472		2.15412577
Al		2.519394146		2.633850775		1.753395225
Al		1.347633534		2.677214434		-0.643636704
F		1.002370378		3.090481586		2.834899163
F		-1.585269533		2.689175422		2.176561486
F		-0.492473271		-0.027090016		2.75295768
F		1.803197303		0.844723343		1.936396815
F		2.977092545		1.849196203		-0.069332516
F		1.088621359		3.032966683		-2.391603812
F		1.750523394		3.998692487		0.632635017
F		4.119773968		3.127116727		2.46380903
F		-0.006725541		1.80149046		0.210604093
