12
-186.39349496
Al		-0.074820923		1.64000851		2.154103533
Al		2.519274827		2.63438505		1.753148698
Al		1.347419131		2.677469431		-0.643568685
F		1.002393278		3.090431487		2.834886569
F		-1.585408566		2.68926414		2.176566692
F		-0.492460507		-0.027103931		2.752961909
F		1.803073102		0.844251938		1.936444106
F		2.977332849		1.84904117		-0.069263758
F		1.08864175		3.032929798		-2.391524372
F		1.750578364		3.998365005		0.632626652
F		4.119952268		3.12714971		2.463890987
F		-0.006665984		1.801500881		0.210577385
