12
-186.39349496
Al		-0.074700543		1.639978586		2.154059059
Al		2.519036189		2.6354536		1.752655644
Al		1.346990325		2.677979425		-0.643432647
F		1.002439078		3.090331289		2.834861381
F		-1.585686632		2.689441576		2.176577104
F		-0.492434979		-0.027131761		2.752970367
F		1.8028247		0.843309128		1.936538688
F		2.977813457		1.848731104		-0.069126242
F		1.088682532		3.032856028		-2.391365492
F		1.750688304		3.997710041		0.632609922
F		4.120308868		3.127215676		2.464054901
F		-0.00654687		1.801521723		0.210523969
