12
-186.39349496
Al		-0.074580163		1.639948662		2.154014585
Al		2.518797551		2.63652215		1.75216259
Al		1.346561519		2.678489419		-0.643296609
F		1.002484878		3.090231091		2.834836193
F		-1.585964698		2.689619012		2.176587516
F		-0.492409451		-0.027159591		2.752978825
F		1.802576298		0.842366318		1.93663327
F		2.978294065		1.848421038		-0.068988726
F		1.088723314		3.032782258		-2.391206612
F		1.750798244		3.997055077		0.632593192
F		4.120665468		3.127281642		2.464218815
F		-0.006427756		1.801542565		0.210470553
