12
-186.39349496
Al		-0.074459783		1.639918738		2.153970111
Al		2.518558913		2.6375907		1.751669536
Al		1.346132713		2.678999413		-0.643160571
F		1.002530678		3.090130893		2.834811005
F		-1.586242764		2.689796448		2.176597928
F		-0.492383923		-0.027187421		2.752987283
F		1.802327896		0.841423508		1.936727852
F		2.978774673		1.848110972		-0.06885121
F		1.088764096		3.032708488		-2.391047732
F		1.750908184		3.996400113		0.632576462
F		4.121022068		3.127347608		2.464382729
F		-0.006308642		1.801563407		0.210417137
