12
-186.39349496
Al		-0.074399593		1.639903776		2.153947874
Al		2.518439594		2.638124975		1.751423009
Al		1.34591831		2.67925441		-0.643092552
F		1.002553578		3.090080794		2.834798411
F		-1.586381797		2.689885166		2.176603134
F		-0.492371159		-0.027201336		2.752991512
F		1.802203695		0.840952103		1.936775143
F		2.979014977		1.847955939		-0.068782452
F		1.088784487		3.032671603		-2.390968292
F		1.750963154		3.996072631		0.632568097
F		4.121200368		3.127380591		2.464464686
F		-0.006249085		1.801573828		0.210390429
