12
-186.39349496
Al		-0.074339403		1.639888814		2.153925637
Al		2.518320275		2.63865925		1.751176482
Al		1.345703907		2.679509407		-0.643024533
F		1.002576478		3.090030695		2.834785817
F		-1.58652083		2.689973884		2.17660834
F		-0.492358395		-0.027215251		2.752995741
F		1.802079494		0.840480698		1.936822434
F		2.979255281		1.847800906		-0.068713694
F		1.088804878		3.032634718		-2.390888852
F		1.751018124		3.995745149		0.632559732
F		4.121378668		3.127413574		2.464546643
F		-0.006189528		1.801584249		0.210363721
