12
-186.39349496
Al		-0.074279213		1.639873852		2.1539034
Al		2.518200956		2.639193525		1.750929955
Al		1.345489504		2.679764404		-0.642956514
F		1.002599378		3.089980596		2.834773223
F		-1.586659863		2.690062602		2.176613546
F		-0.492345631		-0.027229166		2.75299997
F		1.801955293		0.840009293		1.936869725
F		2.979495585		1.847645873		-0.068644936
F		1.088825269		3.032597833		-2.390809412
F		1.751073094		3.995417667		0.632551367
F		4.121556968		3.127446557		2.4646286
F		-0.006129971		1.80159467		0.210337013
