12
-186.39349496
Al		-0.074219023		1.63985889		2.153881163
Al		2.518081637		2.6397278		1.750683428
Al		1.345275101		2.680019401		-0.642888495
F		1.002622278		3.089930497		2.834760629
F		-1.586798896		2.69015132		2.176618752
F		-0.492332867		-0.027243081		2.753004199
F		1.801831092		0.839537888		1.936917016
F		2.979735889		1.84749084		-0.068576178
F		1.08884566		3.032560948		-2.390729972
F		1.751128064		3.995090185		0.632543002
F		4.121735268		3.12747954		2.464710557
F		-0.006070414		1.801605091		0.210310305
