12
-186.39349496
Al		-0.074158833		1.639843928		2.153858926
Al		2.517962318		2.640262075		1.750436901
Al		1.345060698		2.680274398		-0.642820476
F		1.002645178		3.089880398		2.834748035
F		-1.586937929		2.690240038		2.176623958
F		-0.492320103		-0.027256996		2.753008428
F		1.801706891		0.839066483		1.936964307
F		2.979976193		1.847335807		-0.06850742
F		1.088866051		3.032524063		-2.390650532
F		1.751183034		3.994762703		0.632534637
F		4.121913568		3.127512523		2.464792514
F		-0.006010857		1.801615512		0.210283597
