12
-186.39349496
Al		-0.074038453		1.639814004		2.153814452
Al		2.51772368		2.641330625		1.749943847
Al		1.344631892		2.680784392		-0.642684438
F		1.002690978		3.0897802		2.834722847
F		-1.587215995		2.690417474		2.17663437
F		-0.492294575		-0.027284826		2.753016886
F		1.801458489		0.838123673		1.937058889
F		2.980456801		1.847025741		-0.068369904
F		1.088906833		3.032450293		-2.390491652
F		1.751292974		3.994107739		0.632517907
F		4.122270168		3.127578489		2.464956428
F		-0.005891743		1.801636354		0.210230181
