12
-186.39349496
Al		-0.073978263		1.639799042		2.153792215
Al		2.517604361		2.6418649		1.74969732
Al		1.344417489		2.681039389		-0.642616419
F		1.002713878		3.089730101		2.834710253
F		-1.587355028		2.690506192		2.176639576
F		-0.492281811		-0.027298741		2.753021115
F		1.801334288		0.837652268		1.93710618
F		2.980697105		1.846870708		-0.068301146
F		1.088927224		3.032413408		-2.390412212
F		1.751347944		3.993780257		0.632509542
F		4.122448468		3.127611472		2.465038385
F		-0.005832186		1.801646775		0.210203473
