12
-186.39349496
Al		-0.073857883		1.639769118		2.153747741
Al		2.517365723		2.64293345		1.749204266
Al		1.343988683		2.681549383		-0.642480381
F		1.002759678		3.089629903		2.834685065
F		-1.587633094		2.690683628		2.176649988
F		-0.492256283		-0.027326571		2.753029573
F		1.801085886		0.836709458		1.937200762
F		2.981177713		1.846560642		-0.06816363
F		1.088968006		3.032339638		-2.390253332
F		1.751457884		3.993125293		0.632492812
F		4.122805068		3.127677438		2.465202299
F		-0.005713072		1.801667617		0.210150057
