12
-186.39349496
Al		-0.073617123		1.63970927		2.153658793
Al		2.516888447		2.64507055		1.748218158
Al		1.343131071		2.682569371		-0.642208305
F		1.002851278		3.089429507		2.834634689
F		-1.588189226		2.6910385		2.176670812
F		-0.492205227		-0.027382231		2.753046489
F		1.800589082		0.834823838		1.937389926
F		2.982138929		1.84594051		-0.067888598
F		1.08904957		3.032192098		-2.389935572
F		1.751677764		3.991815365		0.632459352
F		4.123518268		3.12780937		2.465530127
F		-0.005474844		1.801709301		0.210043225
