12
-186.39349496
Al		-0.073195793		1.639604536		2.153503134
Al		2.516053214		2.648810475		1.746492469
Al		1.34163025		2.68435435		-0.641732172
F		1.003011578		3.089078814		2.834546531
F		-1.589162457		2.691659526		2.176707254
F		-0.492115879		-0.027479636		2.753076092
F		1.799719675		0.831524003		1.937720963
F		2.983821057		1.844855279		-0.067407292
F		1.089192307		3.031933903		-2.389379492
F		1.752062554		3.989522991		0.632400797
F		4.124766368		3.128040251		2.466103826
F		-0.005057945		1.801782248		0.209856269
