12
-186.39349496
Al		-0.077409093		1.640651876		2.155059724
Al		2.524405544		2.611411225		1.763749359
Al		1.35663846		2.66650456		-0.646493502
F		1.001408578		3.092585744		2.835428111
F		-1.579430147		2.685449266		2.176342834
F		-0.493009359		-0.026505586		2.752780062
F		1.808413745		0.864522353		1.934410593
F		2.966999777		1.855707589		-0.072220352
F		1.087764937		3.034515853		-2.394940292
F		1.748214654		4.012446731		0.632986347
F		4.112285368		3.125731441		2.460366836
F		-0.009226935		1.801052778		0.211725829
