12
-186.39349496
Al		-0.072834653		1.639514764		2.153369712
Al		2.5153373		2.652016125		1.745013307
Al		1.340343832		2.685884332		-0.641324058
F		1.003148978		3.08877822		2.834470967
F		-1.589996655		2.692191834		2.17673849
F		-0.492039295		-0.027563126		2.753101466
F		1.798974469		0.828695573		1.938004709
F		2.985262881		1.843925081		-0.066994744
F		1.089314653		3.031712593		-2.388902852
F		1.752392374		3.987558099		0.632350607
F		4.125836168		3.128238149		2.466595568
F		-0.004700603		1.801844774		0.209696021
