12
-186.39349496
Al		-0.072654083		1.639469878		2.153303001
Al		2.514979343		2.65361895		1.744273726
Al		1.339700623		2.686649323		-0.641120001
F		1.003217678		3.088627923		2.834433185
F		-1.590413754		2.692457988		2.176754108
F		-0.492001003		-0.027604871		2.753114153
F		1.798601866		0.827281358		1.938146582
F		2.985983793		1.843459982		-0.06678847
F		1.089375826		3.031601938		-2.388664532
F		1.752557284		3.986575653		0.632325512
F		4.126371068		3.128337098		2.466841439
F		-0.004521932		1.801876037		0.209615897
