12
-186.39349496
Al		-0.072112373		1.63933522		2.153102868
Al		2.513905472		2.658427425		1.742054983
Al		1.337770996		2.688944296		-0.64050783
F		1.003423778		3.088177032		2.834319839
F		-1.591665051		2.69325645		2.176800962
F		-0.491886127		-0.027730106		2.753152214
F		1.797484057		0.823038713		1.938572201
F		2.988146529		1.842064685		-0.066169648
F		1.089559345		3.031269973		-2.387949572
F		1.753052014		3.983628315		0.632250227
F		4.127975768		3.128633945		2.467579052
F		-0.003985919		1.801969826		0.209375525
