12
-186.39349496
Al		-0.072052183		1.639320258		2.153080631
Al		2.513786153		2.6589617		1.741808456
Al		1.337556593		2.689199293		-0.640439811
F		1.003446678		3.088126933		2.834307245
F		-1.591804084		2.693345168		2.176806168
F		-0.491873363		-0.027744021		2.753156443
F		1.797359856		0.822567308		1.938619492
F		2.988386833		1.841909652		-0.06610089
F		1.089579736		3.031233088		-2.387870132
F		1.753106984		3.983300833		0.632241862
F		4.128154068		3.128666928		2.467661009
F		-0.003926362		1.801980247		0.209348817
