12
-186.39349496
Al		-0.071991993		1.639305296		2.153058394
Al		2.513666834		2.659495975		1.741561929
Al		1.33734219		2.68945429		-0.640371792
F		1.003469578		3.088076834		2.834294651
F		-1.591943117		2.693433886		2.176811374
F		-0.491860599		-0.027757936		2.753160672
F		1.797235655		0.822095903		1.938666783
F		2.988627137		1.841754619		-0.066032132
F		1.089600127		3.031196203		-2.387790692
F		1.753161954		3.982973351		0.632233497
F		4.128332368		3.128699911		2.467742966
F		-0.003866805		1.801990668		0.209322109
