      12
SCF Done            -186.23703748
Al           -1.671562461         2.565277820        -1.262124491
Al           -0.571395955         0.050907006        -2.330142774
Al           -2.204375776        -0.398457118        -0.484967837
F            -0.748683541         3.687502836        -0.171401057
F            -3.020155847         3.175691593        -2.312399992
F            -1.423738280        -1.684451427        -1.669699561
F            -2.490943162         1.410536483        -0.017134838
F            -3.275238163        -1.358184632         0.621488453
F             0.595754998        -0.471744541        -3.603007104
F            -0.277503125         1.953402914        -2.382092431
F            -2.447135357         0.475950351        -2.312696828
F            -0.292018568         0.160959639        -0.412955408
