      12
SCF Done            -167.65236043
Al           -1.671562389         2.565277885        -1.262124406
Al           -0.571395970         0.050907004        -2.330142956
Al           -2.204375786        -0.398457112        -0.484967849
F            -0.748683480         3.687502911        -0.171400973
F            -3.020155770         3.175691666        -2.312399919
F            -1.423738288        -1.684451437        -1.669699554
F            -2.490943080         1.410536510        -0.017134815
F            -3.275238330        -1.358184546         0.621488364
F             0.595754890        -0.471744460        -3.603007200
F            -0.277503093         1.953402922        -2.382092322
F            -2.447135357         0.475950351        -2.312696828
F            -0.292018563         0.160959580        -0.412955388
