12
Properties=species:S:1:pos:R:3:forces:R:3 energy=-187.30537757 pbc="F F F"
Al    1.28280038    0.042816617    2.4576775730000002    -0.001514    -0.002515    0.002685
Al    1.3687416000000001    1.2756318    -0.0997249    -0.284226    -0.267016    0.051437
Al    -0.327717362    0.83397495    -2.3345602729999997    -0.003039    -0.001763    -0.001858
F    -1.690452172    -0.391183253    -2.209417206    -0.004956    0.00142    -0.012508
F    2.245989253    -0.6928343530000001    0.894216452    -0.304846    0.614826    -0.287258
F    0.061630539    1.8415120900000002    -3.8209601330000003    -0.008555    -0.007659    0.000715
F    -0.71133881    2.114099553    -0.875985349    0.643942    -0.296264    0.22589
F    2.833312657    2.6515210120000003    -0.36477324299999997    -0.371418    -0.348928    0.067217
F    1.294705739    -0.225524195    -1.936405454    -0.015282    0.472581    0.574365
F    0.23994161700000002    1.6467865289999999    1.954635939    0.354379    -0.154016    -0.635733
F    2.569287369    0.609640376    3.640796237    -0.008027    -0.007919    0.002285
F    -0.002964825000000001    -1.220152852    2.811841771    0.003539    -0.002751    0.012764
