12
Properties=species:S:1:pos:R:3:forces:R:3 energy=-187.05937159 pbc="F F F"
Al    0.135034393    -0.594125158    1.710853039    -0.429283    0.01408    -0.157457
Al    2.580851165    -1.667943172    -0.12293959700000001    0.172154    0.279845    0.769307
Al    -0.560588981    -1.9878349579999999    -1.275286043    0.76167    -0.207614    -0.433486
F    3.349409007    -0.5096524929999999    -1.4765561799999998    0.016919    0.09129    -0.395846
F    -1.914562254    -0.5822575879999999    -1.418426397    -0.310858    0.21505    0.202645
F    2.480152395    -3.502895894    -0.774571043    -0.127945    -0.221254    -0.247583
F    -1.463684566    -3.622985402    -0.9288082200000001    -0.257422    -0.14168    0.172724
F    1.8168253970000001    -1.586258093    1.5664013019999998    0.027283    -0.1898    0.124739
F    1.165544564    -1.549322682    -1.4146388650000001    -0.002204    -0.018841    -0.011295
F    0.265434852    -1.210584763    3.436698989    0.171725    -0.029387    0.086625
F    0.262453271    1.120970799    1.110589336    -0.036996    0.017623    -0.016304
F    -0.941641468    -1.168347783    0.397228414    0.014956    0.190688    -0.094069
