12
Properties=species:S:1:pos:R:3:forces:R:3 energy=-186.30681354 pbc="F F F"
Al    -0.317495738    1.03197386    -1.727370636    -0.01291    -0.547789    0.385727
Al    -0.404834614    1.104789653    1.302809136    -0.115614    0.08268    -0.085691
Al    -2.909220619    0.506752789    -1.8214359420000001    -0.102417    0.141406    -0.035318
F    -3.380689061    0.305931908    -3.574341508    0.001718    0.045834    -0.006035
F    -1.301775157    -0.588737801    -1.821044145    0.040803    -0.067157    0.213611
F    -1.880702087    2.135643903    -1.827424083    0.035983    0.101308    -0.237188
F    -1.870630325    0.862408239    0.218678924    -0.21671    0.325963    0.040968
F    0.847796827    1.054534743    -0.281000111    0.203454    -0.412707    0.015121
F    -0.681240175    2.746518097    2.086118247    -0.348529    0.132094    0.136313
F    0.19555011500000008    -0.429047758    2.202996845    0.453954    -0.115089    -0.180511
F    -4.120684392    0.25067216999999997    -0.491222565    -0.007611    -0.052628    0.011472
F    0.197003127    1.216541237    -3.639728029    0.06788    0.366083    -0.258468
