12
Properties=species:S:1:pos:R:3:forces:R:3 energy=-186.37659796 pbc="F F F"
Al    -0.305440657    1.857605596    2.062997721    -0.390704    0.530513    -0.092018
Al    2.351674696    2.7594840250000003    1.875348775    -0.43137    0.267584    -0.073736
Al    1.485256258    2.540594981    -0.688999453    -0.359774    0.242661    -0.185753
F    0.746095352    3.335967319    2.724885232    0.149389    -0.069287    -0.061535
F    -1.768642947    2.874530343    1.783999495    0.335395    -0.241617    0.00185
F    -0.74954446    0.22673658200000002    2.83023926    -0.013212    -0.208217    0.070546
F    1.633590369    1.0178353850000001    2.116677234    0.047076    -0.158309    0.002199
F    3.012331342    1.807429672    0.134801546    0.254767    -0.155339    0.078003
F    1.394435714    2.756801752    -2.495891404    0.050312    -0.053034    0.155601
F    1.724946868    4.034463387    0.508910665    0.083657    -0.168915    0.032725
F    3.9031509659999997    3.3040494110000003    2.657106168    0.210528    0.032746    0.084933
F    0.007290599999999994    1.7799981679999999    0.118150505    0.063935    -0.018788    -0.012814
