      12
SCF Done            -167.93302084
Al           -0.046048613         1.559496372         2.144189220
Al            2.537416496         2.579201825         1.754772375
Al            1.309765684         2.786344584        -0.625094854
F             1.029427378         2.995907336         2.885546863
F            -1.560305483         2.602199122         2.257188786
F            -0.439301071        -0.131905066         2.658207830
F             1.838278553         0.829092793         1.841819065
F             2.943373345         1.940950253        -0.133412416
F             1.007064609         3.233240933        -2.350639412
F             1.721898894         4.048630587         0.719435667
F             4.130927768         3.076815977         2.446616380
F            -0.024970991         1.842859810         0.210270293
