12
Properties=species:S:1:pos:R:3:forces:R:3 energy=-186.69055769 pbc="F F F"
Al    1.06492868    0.019032716999999998    2.304472873    0.233236    0.515787    0.141252
Al    1.2356091999999999    1.5973518    -0.0018707999999999997    -1.650428    0.438398    0.627038
Al    -0.414430562    0.74575965    -2.097486973    0.153941    0.554731    -0.094663
F    -1.353600972    -0.852518853    -2.326591006    0.108947    -0.800188    -0.014508
F    1.491692453    -0.33094975299999996    0.532539652    -0.193616    -0.513196    -0.250185
F    0.218925139    1.83223849    -3.471451733    0.033279    -0.027793    -0.017434
F    -0.28970461000000003    2.3608991529999996    -0.873558849    -0.027336    0.564538    -0.215509
F    2.975683957    2.1530941120000002    -0.494904843    1.18733    0.159015    -0.372772
F    0.938266639    -0.059082394999999996    -1.1142236540000001    -0.057714    -0.579958    0.154189
F    0.600633717    1.923522829    1.7757246389999999    0.16006    0.47248    0.342107
F    2.488484969    0.7173312759999999    3.281828037    0.034261    -0.028274    -0.014516
F    0.291327875    -1.660580752    2.568035671    0.018038    -0.755539    -0.285
