      12
SCF Done            -166.07838666
Al            1.274268062         0.058700116         2.448257837
Al            1.134571200         1.355103800        -0.007907800
Al           -0.327461185         0.845540964        -2.317828273
F            -1.479248604        -0.593016544        -2.319869677
F             1.783377392        -0.359028754         0.671890713
F             0.055526984         1.813729254        -3.800891594
F            -0.355778626         2.191608081        -0.903639095
F             2.727226953         2.258424109        -0.394017844
F             1.087287823        -0.017079272        -1.399382777
F             0.548906871         1.747185023         1.788334702
F             2.549858730         0.588403019         3.621214609
F             0.211864359        -1.423767259         2.712181586
