      12
SCF Done            -186.69055769
Al            1.274267680         0.058699717         2.448256873
Al            1.134571200         1.355103800        -0.007907800
Al           -0.327461562         0.845540650        -2.317827973
F            -1.479248972        -0.593016853        -2.319868006
F             1.783377453        -0.359028753         0.671890652
F             0.055526139         1.813728490        -3.800891733
F            -0.355778610         2.191608153        -0.903639849
F             2.727226957         2.258424112        -0.394017843
F             1.087287639        -0.017079395        -1.399382654
F             0.548906717         1.747184829         1.788334639
F             2.549857969         0.588402276         3.621215037
F             0.211863875        -1.423767752         2.712181671
