12
Properties=species:S:1:pos:R:3:forces:R:3 energy=-186.35103317 pbc="F F F"
Al    -1.589783261    2.7115204200000003    -1.100977291    0.0    -0.0    0.0
Al    -0.609464355    0.003162206    -2.383219374    -0.0    -0.0    0.0
Al    -2.2449939760000004    -0.329610918    -0.588538837    0.0    -0.0    -0.0
F    -0.883827541    4.147937636    -0.191282657    -0.0    0.0    -0.0
F    -2.9093882470000003    3.360451993    -2.183234592    -0.0    0.0    -0.0
F    -1.32463748    -1.686721027    -1.674874961    0.0    -0.0    0.0
F    -2.4828829619999997    1.470773083    0.034602562    0.0    0.0    -0.0
F    -3.0304507629999997    -1.748871632    0.38049225300000006    0.0    0.0    -0.0
F    0.508946398    -1.0287283409999999    -3.5033195040000003    -0.0    0.0    0.0
F    -0.35271392500000004    1.9041879140000002    -2.302850031    -0.0    0.0    0.0
F    -2.5307151570000004    0.435707151    -2.380454228    0.0    -0.0    0.0
F    -0.377675368    0.295516239    -0.444338408    0.0    -0.0    0.0
