      12
SCF Done            -182.35090000
Al           -0.107985657         1.648252596         2.166356021
Al            2.585019596         2.339999525         1.888985075
Al            1.465555158         2.536965581        -0.681047153
F             0.989775352         3.118036019         2.841825832
F            -1.508801447         2.640380543         2.173698095
F            -0.499493460        -0.019436718         2.750631760
F             1.871507869         1.103996085         1.910386734
F             2.844925342         1.934464372        -0.107149454
F             1.077406214         3.053253452        -2.435295804
F             1.720289868         4.178807587         0.637235765
F             4.021708966         3.108976111         2.418732668
F            -0.039481900         1.795758868         0.225293505
