12
-186.56215295
Al		-0.361736138		1.02270026		-1.819271136
Al		-0.447223081		1.071290091		1.281722301
Al		-3.021823503		0.467351078		-1.858981009
F		-3.540092855		0.353545136		-3.600467861
F		-1.384767358		-0.564524304		-1.862882638
F		-1.937517793		2.067903189		-1.871800761
F		-2.025064377		0.673177155		0.456536609
F		0.601417416		1.246801297		-0.294329875
F		-0.331150681		2.754574704		1.955332771
F		0.386870908		-0.327220371		2.084548358
F		-4.275106067		0.203728026		-0.580657213
F		0.747450619		1.244405003		-3.233867344
