12
-186.56215295
Al		-0.363773437		1.032127229		-1.819450916
Al		-0.447805052		1.073982875		1.281670948
Al		-3.020131257		0.459521036		-1.858831667
F		-3.532629493		0.319011534		-3.599809172
F		-1.37803255		-0.562399874		-1.844549617
F		-1.94438441		2.066388587		-1.890145441
F		-2.033246859		0.711038378		0.455814552
F		0.596966526		1.267395897		-0.294722632
F		-0.305043688		2.740825005		1.986941121
F		0.369017775		-0.351662352		2.053668384
F		-4.27656362		0.210472179		-0.580785818
F		0.747060799		1.246208766		-3.233901787
