12
-186.56215295
Al		-0.363979456		1.033080518		-1.819469096
Al		-0.447863903		1.074255179		1.281665755
Al		-3.019960131		0.458729234		-1.858816565
F		-3.531874771		0.315519372		-3.599742563
F		-1.377351502		-0.562185044		-1.842695716
F		-1.945078787		2.066235425		-1.892000521
F		-2.034074301		0.714867041		0.455741535
F		0.596516436		1.269478497		-0.294762349
F		-0.302403655		2.739434586		1.990137471
F		0.367212402		-0.354134013		2.05054569
F		-4.276711013		0.211154172		-0.580798823
F		0.747021379		1.246391169		-3.23390527
