12
-186.56215295
Al		-0.363201162		1.029479204		-1.819400416
Al		-0.447641577		1.073226475		1.281685373
Al		-3.020606607		0.461720486		-1.858873617
F		-3.534725943		0.328711984		-3.599994197
F		-1.37992435		-0.562996624		-1.849699342
F		-1.942455585		2.066814037		-1.884992441
F		-2.030948409		0.700403203		0.456017377
F		0.598216776		1.261610897		-0.294612307
F		-0.312377113		2.74468728		1.978062371
F		0.3740327		-0.344796627		2.062342534
F		-4.276154195		0.208577754		-0.580749693
F		0.747170299		1.245702091		-3.233892112
