12
-186.56215295
Al		-0.36315538		1.029267362		-1.819396376
Al		-0.447628499		1.073165963		1.281686527
Al		-3.020644635		0.461896442		-1.858876973
F		-3.534893659		0.32948802		-3.600008999
F		-1.380075694		-0.563044364		-1.85011132
F		-1.942301279		2.066848073		-1.884580201
F		-2.030764533		0.699552389		0.456033603
F		0.598316796		1.261148097		-0.294603481
F		-0.312963787		2.744996262		1.977352071
F		0.374433894		-0.344247369		2.063036466
F		-4.276121441		0.2084262		-0.580746803
F		0.747179059		1.245661557		-3.233891338
