12
-186.56215295
Al		-0.363132489		1.029161441		-1.819394356
Al		-0.44762196		1.073135707		1.281687104
Al		-3.020663649		0.46198442		-1.858878651
F		-3.534977517		0.329876038		-3.6000164
F		-1.380151366		-0.563068234		-1.850317309
F		-1.942224126		2.066865091		-1.884374081
F		-2.030672595		0.699126982		0.456041716
F		0.598366806		1.260916697		-0.294599068
F		-0.313257124		2.745150753		1.976996921
F		0.374634491		-0.34397274		2.063383432
F		-4.276105064		0.208350423		-0.580745358
F		0.747183439		1.24564129		-3.233890951
