12
-186.56215295
Al		-0.363109598		1.02905552		-1.819392336
Al		-0.447615421		1.073105451		1.281687681
Al		-3.020682663		0.462072398		-1.858880329
F		-3.535061375		0.330264056		-3.600023801
F		-1.380227038		-0.563092104		-1.850523298
F		-1.942146973		2.066882109		-1.884167961
F		-2.030580657		0.698701575		0.456049829
F		0.598416816		1.260685297		-0.294594655
F		-0.313550461		2.745305244		1.976641771
F		0.374835088		-0.343698111		2.063730398
F		-4.276088687		0.208274646		-0.580743913
F		0.747187819		1.245621023		-3.233890564
