12
-186.56215295
Al		-0.36292647		1.028208152		-1.819376176
Al		-0.447563109		1.072863403		1.281692297
Al		-3.020834775		0.462776222		-1.858893753
F		-3.535732239		0.3333682		-3.600083009
F		-1.380832414		-0.563283064		-1.85217121
F		-1.941529749		2.067018253		-1.882519001
F		-2.029845153		0.695298319		0.456114733
F		0.598816896		1.258834097		-0.294559351
F		-0.315897157		2.746541172		1.973800571
F		0.376439864		-0.341501079		2.066506126
F		-4.275957671		0.20766843		-0.580732353
F		0.747222859		1.245458887		-3.233887468
