12
-186.56215295
Al		-0.362903579		1.028102231		-1.819374156
Al		-0.44755657		1.072833147		1.281692874
Al		-3.020853789		0.4628642		-1.858895431
F		-3.535816097		0.333756218		-3.60009041
F		-1.380908086		-0.563306934		-1.852377199
F		-1.941452596		2.067035271		-1.882312881
F		-2.029753215		0.694872912		0.456122846
F		0.598866906		1.258602697		-0.294554938
F		-0.316190494		2.746695663		1.973445421
F		0.376640461		-0.34122645		2.066853092
F		-4.275941294		0.207592653		-0.580730908
F		0.747227239		1.24543862		-3.233887081
