12
-186.56215295
Al		-0.362560214		1.026513416		-1.819343856
Al		-0.447458485		1.072379307		1.281701529
Al		-3.021138999		0.46418387		-1.858920601
F		-3.537073967		0.339576488		-3.600201425
F		-1.382043166		-0.563664984		-1.855467034
F		-1.940295301		2.067290541		-1.879221081
F		-2.028374145		0.688491807		0.456244541
F		0.599617056		1.255131697		-0.294488743
F		-0.320590549		2.749013028		1.968118171
F		0.379649416		-0.337107015		2.072057582
F		-4.275695639		0.206455998		-0.580709233
F		0.747292939		1.245134615		-3.233881276
