12
-186.56215295
Al		-0.362445759		1.025983811		-1.819333756
Al		-0.44742579		1.072228027		1.281704414
Al		-3.021234069		0.46462376		-1.858928991
F		-3.537493257		0.341516578		-3.60023843
F		-1.382421526		-0.563784334		-1.856496979
F		-1.939909536		2.067375631		-1.878190481
F		-2.027914455		0.686364772		0.456285106
F		0.599867106		1.253974697		-0.294466678
F		-0.322057234		2.749785483		1.966342421
F		0.380652401		-0.33573387		2.073792412
F		-4.275613754		0.206077113		-0.580702008
F		0.747314839		1.24503328		-3.233879341
