12
-186.56215295
Al		-0.363865001		1.032550913		-1.819458996
Al		-0.447831208		1.074103899		1.28166864
Al		-3.020055201		0.459169124		-1.858824955
F		-3.532294061		0.317459462		-3.599779568
F		-1.377729862		-0.562304394		-1.843725661
F		-1.944693022		2.066320515		-1.890969921
F		-2.033614611		0.712740006		0.4557821
F		0.596766486		1.268321497		-0.294740284
F		-0.30387034		2.740207041		1.988361721
F		0.368215387		-0.352760868		2.05228052
F		-4.276629128		0.210775287		-0.580791598
F		0.747043279		1.246289834		-3.233903335
