12
-186.56215295
Al		-0.362422868		1.02587789		-1.819331736
Al		-0.447419251		1.072197771		1.281704991
Al		-3.021253083		0.464711738		-1.858930669
F		-3.537577115		0.341904596		-3.600245831
F		-1.382497198		-0.563808204		-1.856702968
F		-1.939832383		2.067392649		-1.877984361
F		-2.027822517		0.685939365		0.456293219
F		0.599917116		1.253743297		-0.294462265
F		-0.322350571		2.749939974		1.965987271
F		0.380852998		-0.335459241		2.074139378
F		-4.275597377		0.206001336		-0.580700563
F		0.747319219		1.245013013		-3.233878954
