12
-186.56215295
Al		-0.36223974		1.025030522		-1.819315576
Al		-0.447366939		1.071955723		1.281709607
Al		-3.021405195		0.465415562		-1.858944093
F		-3.538247979		0.34500874		-3.600305039
F		-1.383102574		-0.563999164		-1.85835088
F		-1.939215159		2.067528793		-1.876335401
F		-2.027087013		0.682536109		0.456358123
F		0.600317196		1.251892097		-0.294426961
F		-0.324697267		2.751175902		1.963146071
F		0.382457774		-0.333262209		2.076915106
F		-4.275466361		0.20539512		-0.580689003
F		0.747354259		1.244850877		-3.233875858
