12
-186.56215295
Al		-0.36384211		1.032444992		-1.819456976
Al		-0.447824669		1.074073643		1.281669217
Al		-3.020074215		0.459257102		-1.858826633
F		-3.532377919		0.31784748		-3.599786969
F		-1.377805534		-0.562328264		-1.84393165
F		-1.944615869		2.066337533		-1.890763801
F		-2.033522673		0.712314599		0.455790213
F		0.596816496		1.268090097		-0.294735871
F		-0.304163677		2.740361532		1.988006571
F		0.368415984		-0.352486239		2.052627486
F		-4.276612751		0.21069951		-0.580790153
F		0.747047659		1.246269567		-3.233902948
