12
-186.56215295
Al		-0.362171067		1.024712759		-1.819309516
Al		-0.447347322		1.071864955		1.281711338
Al		-3.021462237		0.465679496		-1.858949127
F		-3.538499553		0.346172794		-3.600327242
F		-1.38332959		-0.564070774		-1.858968847
F		-1.9389837		2.067579847		-1.875717041
F		-2.026811199		0.681259888		0.456382462
F		0.600467226		1.251197897		-0.294413722
F		-0.325577278		2.751639375		1.962080621
F		0.383059565		-0.332438322		2.077956004
F		-4.27541723		0.205167789		-0.580684668
F		0.747367399		1.244790076		-3.233874697
