12
-186.56215295
Al		-0.362148176		1.024606838		-1.819307496
Al		-0.447340783		1.071834699		1.281711915
Al		-3.021481251		0.465767474		-1.858950805
F		-3.538583411		0.346560812		-3.600334643
F		-1.383405262		-0.564094644		-1.859174836
F		-1.938906547		2.067596865		-1.875510921
F		-2.026719261		0.680834481		0.456390575
F		0.600517236		1.250966497		-0.294409309
F		-0.325870615		2.751793866		1.961725471
F		0.383260162		-0.332163693		2.07830297
F		-4.275400853		0.205092012		-0.580683223
F		0.747371779		1.244769809		-3.23387431
