12
-186.56215295
Al		-0.36201083		1.023971312		-1.819295376
Al		-0.447301549		1.071653163		1.281715377
Al		-3.021595335		0.466295342		-1.858960873
F		-3.539086559		0.34888892		-3.600379049
F		-1.383859294		-0.564237864		-1.86041077
F		-1.938443629		2.067698973		-1.874274201
F		-2.026167633		0.678282039		0.456439253
F		0.600817296		1.249578097		-0.294382831
F		-0.327630637		2.752720812		1.959594571
F		0.384463744		-0.330515919		2.080384766
F		-4.275302591		0.20463735		-0.580674553
F		0.747398059		1.244648207		-3.233871988
