12
-186.56215295
Al		-0.363819219		1.032339071		-1.819454956
Al		-0.44781813		1.074043387		1.281669794
Al		-3.020093229		0.45934508		-1.858828311
F		-3.532461777		0.318235498		-3.59979437
F		-1.377881206		-0.562352134		-1.844137639
F		-1.944538716		2.066354551		-1.890557681
F		-2.033430735		0.711889192		0.455798326
F		0.596866506		1.267858697		-0.294731458
F		-0.304457014		2.740516023		1.987651421
F		0.368616581		-0.35221161		2.052974452
F		-4.276596374		0.210623733		-0.580788708
F		0.747052039		1.2462493		-3.233902561
