12
-186.56215295
Al		-0.361965048		1.02375947		-1.819291336
Al		-0.447288471		1.071592651		1.281716531
Al		-3.021633363		0.466471298		-1.858964229
F		-3.539254275		0.349664956		-3.600393851
F		-1.384010638		-0.564285604		-1.860822748
F		-1.938289323		2.067733009		-1.873861961
F		-2.025983757		0.677431225		0.456455479
F		0.600917316		1.249115297		-0.294374005
F		-0.328217311		2.753029794		1.958884271
F		0.384864938		-0.329966661		2.081078698
F		-4.275269837		0.204485796		-0.580671663
F		0.747406819		1.244607673		-3.233871214
