12
-186.56215295
Al		-0.361827702		1.023123944		-1.819279216
Al		-0.447249237		1.071411115		1.281719993
Al		-3.021747447		0.466999166		-1.858974297
F		-3.539757423		0.351993064		-3.600438257
F		-1.38446467		-0.564428824		-1.862058682
F		-1.937826405		2.067835117		-1.872625241
F		-2.025432129		0.674878783		0.456504157
F		0.601217376		1.247726897		-0.294347527
F		-0.329977333		2.75395674		1.956753371
F		0.38606852		-0.328318887		2.083160494
F		-4.275171575		0.204031134		-0.580662993
F		0.747433099		1.244486071		-3.233868892
