12
-186.56215295
Al		-0.361759029		1.022806181		-1.819273156
Al		-0.44722962		1.071320347		1.281721724
Al		-3.021804489		0.4672631		-1.858979331
F		-3.540008997		0.353157118		-3.60046046
F		-1.384691686		-0.564500434		-1.862676649
F		-1.937594946		2.067886171		-1.872006881
F		-2.025156315		0.673602562		0.456528496
F		0.601367406		1.247032697		-0.294334288
F		-0.330857344		2.754420213		1.955687921
F		0.386670311		-0.327495		2.084201392
F		-4.275122444		0.203803803		-0.580658658
F		0.747446239		1.24442527		-3.233867731
