12
-186.56215295
Al		-0.364048129		1.033398281		-1.819475156
Al		-0.44788352		1.074345947		1.281664024
Al		-3.019903089		0.4584653		-1.858811531
F		-3.531623197		0.314355318		-3.59972036
F		-1.377124486		-0.562113434		-1.842077749
F		-1.945310246		2.066184371		-1.892618881
F		-2.034350115		0.716143262		0.455717196
F		0.596366406		1.270172697		-0.294775588
F		-0.301523644		2.738971113		1.991202921
F		0.366610611		-0.3549579		2.049504792
F		-4.276760144		0.211381503		-0.580803158
F		0.747008239		1.24645197		-3.233906431
