12
-186.56215295
Al		-0.364254148		1.03435157		-1.819493336
Al		-0.447942371		1.074618251		1.281658831
Al		-3.019731963		0.457673498		-1.858796429
F		-3.530868475		0.310863156		-3.599653751
F		-1.376443438		-0.561898604		-1.840223848
F		-1.946004623		2.066031209		-1.894473961
F		-2.035177557		0.719971925		0.455644179
F		0.595916316		1.272255297		-0.294815305
F		-0.298883611		2.737580694		1.994399271
F		0.364805238		-0.357429561		2.046382098
F		-4.276907537		0.212063496		-0.580816163
F		0.746968819		1.246634373		-3.233909914
