12
-186.56215295
Al		-0.364277039		1.034457491		-1.819495356
Al		-0.44794891		1.074648507		1.281658254
Al		-3.019712949		0.45758552		-1.858794751
F		-3.530784617		0.310475138		-3.59964635
F		-1.376367766		-0.561874734		-1.840017859
F		-1.946081776		2.066014191		-1.894680081
F		-2.035269495		0.720397332		0.455636066
F		0.595866306		1.272486697		-0.294819718
F		-0.298590274		2.737426203		1.994754421
F		0.364604641		-0.35770419		2.046035132
F		-4.276923914		0.212139273		-0.580817608
F		0.746964439		1.24665464		-3.233910301
