12
-186.56215295
Al		-0.364322821		1.034669333		-1.819499396
Al		-0.447961988		1.074709019		1.2816571
Al		-3.019674921		0.457409564		-1.858791395
F		-3.530616901		0.309699102		-3.599631548
F		-1.376216422		-0.561826994		-1.839605881
F		-1.946236082		2.065980155		-1.895092321
F		-2.035453371		0.721248146		0.45561984
F		0.595766286		1.272949497		-0.294828544
F		-0.2980036		2.737117221		1.995464721
F		0.364203447		-0.358253448		2.0453412
F		-4.276956668		0.212290827		-0.580820498
F		0.746955679		1.246695174		-3.233911075
