12
-186.56215295
Al		-0.364345712		1.034775254		-1.819501416
Al		-0.447968527		1.074739275		1.281656523
Al		-3.019655907		0.457321586		-1.858789717
F		-3.530533043		0.309311084		-3.599624147
F		-1.37614075		-0.561803124		-1.839399892
F		-1.946313235		2.065963137		-1.895298441
F		-2.035545309		0.721673553		0.455611727
F		0.595716276		1.273180897		-0.294832957
F		-0.297710263		2.73696273		1.995819871
F		0.36400285		-0.358528077		2.044994234
F		-4.276973045		0.212366604		-0.580821943
F		0.746951299		1.246715441		-3.233911462
