12
-186.56215295
Al		-0.364368603		1.034881175		-1.819503436
Al		-0.447975066		1.074769531		1.281655946
Al		-3.019636893		0.457233608		-1.858788039
F		-3.530449185		0.308923066		-3.599616746
F		-1.376065078		-0.561779254		-1.839193903
F		-1.946390388		2.065946119		-1.895504561
F		-2.035637247		0.72209896		0.455603614
F		0.595666266		1.273412297		-0.29483737
F		-0.297416926		2.736808239		1.996175021
F		0.363802253		-0.358802706		2.044647268
F		-4.276989422		0.212442381		-0.580823388
F		0.746946919		1.246735708		-3.233911849
