12
-186.56215295
Al		-0.364414385		1.035093017		-1.819507476
Al		-0.447988144		1.074830043		1.281654792
Al		-3.019598865		0.457057652		-1.858784683
F		-3.530281469		0.30814703		-3.599601944
F		-1.375913734		-0.561731514		-1.838781925
F		-1.946544694		2.065912083		-1.895916801
F		-2.035821123		0.722949774		0.455587388
F		0.595566246		1.273875097		-0.294846196
F		-0.296830252		2.736499257		1.996885321
F		0.363401059		-0.359351964		2.043953336
F		-4.277022176		0.212593935		-0.580826278
F		0.746938159		1.246776242		-3.233912623
