12
-186.56215295
Al		-0.364460167		1.035304859		-1.819511516
Al		-0.448001222		1.074890555		1.281653638
Al		-3.019560837		0.456881696		-1.858781327
F		-3.530113753		0.307370994		-3.599587142
F		-1.37576239		-0.561683774		-1.838369947
F		-1.946699		2.065878047		-1.896329041
F		-2.036004999		0.723800588		0.455571162
F		0.595466226		1.274337897		-0.294855022
F		-0.296243578		2.736190275		1.997595621
F		0.362999865		-0.359901222		2.043259404
F		-4.27705493		0.212745489		-0.580829168
F		0.746929399		1.246816776		-3.233913397
