12
-186.56215295
Al		-0.364597513		1.035940385		-1.819523636
Al		-0.448040456		1.075072091		1.281650176
Al		-3.019446753		0.456353828		-1.858771259
F		-3.529610605		0.305042886		-3.599542736
F		-1.375308358		-0.561540554		-1.837134013
F		-1.947161918		2.065775939		-1.897565761
F		-2.036556627		0.72635303		0.455522484
F		0.595166166		1.275726297		-0.2948815
F		-0.294483556		2.735263329		1.999726521
F		0.361796283		-0.361548996		2.041177608
F		-4.277153192		0.213200151		-0.580837838
F		0.746903119		1.246938378		-3.233915719
