12
-186.56215295
Al		-0.364620404		1.036046306		-1.819525656
Al		-0.448046995		1.075102347		1.281649599
Al		-3.019427739		0.45626585		-1.858769581
F		-3.529526747		0.304654868		-3.599535335
F		-1.375232686		-0.561516684		-1.836928024
F		-1.947239071		2.065758921		-1.897771881
F		-2.036648565		0.726778437		0.455514371
F		0.595116156		1.275957697		-0.294885913
F		-0.294190219		2.735108838		2.000081671
F		0.361595686		-0.361823625		2.040830642
F		-4.277169569		0.213275928		-0.580839283
F		0.746898739		1.246958645		-3.233916106
