12
-186.56215295
Al		-0.364734859		1.036575911		-1.819535756
Al		-0.44807969		1.075253627		1.281646714
Al		-3.019332669		0.45582596		-1.858761191
F		-3.529107457		0.302714778		-3.59949833
F		-1.374854326		-0.561397334		-1.835898079
F		-1.947624836		2.065673831		-1.898802481
F		-2.037108255		0.728905472		0.455473806
F		0.594866106		1.277114697		-0.294907978
F		-0.292723534		2.734336383		2.001857421
F		0.360592701		-0.36319677		2.039095812
F		-4.277251454		0.213654813		-0.580846508
F		0.746876839		1.24705998		-3.233918041
