12
-186.56215295
Al		-0.36475775		1.036681832		-1.819537776
Al		-0.448086229		1.075283883		1.281646137
Al		-3.019313655		0.455737982		-1.858759513
F		-3.529023599		0.30232676		-3.599490929
F		-1.374778654		-0.561373464		-1.83569209
F		-1.947701989		2.065656813		-1.899008601
F		-2.037200193		0.729330879		0.455465693
F		0.594816096		1.277346097		-0.294912391
F		-0.292430197		2.734181892		2.002212571
F		0.360392104		-0.363471399		2.038748846
F		-4.277267831		0.21373059		-0.580847953
F		0.746872459		1.247080247		-3.233918428
