12
-186.56215295
Al		-0.364780641		1.036787753		-1.819539796
Al		-0.448092768		1.075314139		1.28164556
Al		-3.019294641		0.455650004		-1.858757835
F		-3.528939741		0.301938742		-3.599483528
F		-1.374702982		-0.561349594		-1.835486101
F		-1.947779142		2.065639795		-1.899214721
F		-2.037292131		0.729756286		0.45545758
F		0.594766086		1.277577497		-0.294916804
F		-0.29213686		2.734027401		2.002567721
F		0.360191507		-0.363746028		2.03840188
F		-4.277284208		0.213806367		-0.580849398
F		0.746868079		1.247100514		-3.233918815
