12
-186.56215295
Al		-0.364872205		1.037211437		-1.819547876
Al		-0.448118924		1.075435163		1.281643252
Al		-3.019218585		0.455298092		-1.858751123
F		-3.528604309		0.30038667		-3.599453924
F		-1.374400294		-0.561254114		-1.834662145
F		-1.948087754		2.065571723		-1.900039201
F		-2.037659883		0.731457914		0.455425128
F		0.594566046		1.278503097		-0.294934456
F		-0.290963512		2.733409437		2.003988321
F		0.359389119		-0.364844544		2.037014016
F		-4.277349716		0.214109475		-0.580855178
F		0.746850559		1.247181582		-3.233920363
