12
-186.56215295
Al		-0.364917987		1.037423279		-1.819551916
Al		-0.448132002		1.075495675		1.281642098
Al		-3.019180557		0.455122136		-1.858747767
F		-3.528436593		0.299610634		-3.599439122
F		-1.37424895		-0.561206374		-1.834250167
F		-1.94824206		2.065537687		-1.900451441
F		-2.037843759		0.732308728		0.455408902
F		0.594466026		1.278965897		-0.294943282
F		-0.290376838		2.733100455		2.004698621
F		0.358987925		-0.365393802		2.036320084
F		-4.27738247		0.214261029		-0.580858068
F		0.746841799		1.247222116		-3.233921137
