12
-186.56215295
Al		-0.364116802		1.033716044		-1.819481216
Al		-0.447903137		1.074436715		1.281662293
Al		-3.019846047		0.458201366		-1.858806497
F		-3.531371623		0.313191264		-3.599698157
F		-1.37689747		-0.562041824		-1.841459782
F		-1.945541705		2.066133317		-1.893237241
F		-2.034625929		0.717419483		0.455692857
F		0.596216376		1.270866897		-0.294788827
F		-0.300643633		2.73850764		1.992268371
F		0.36600882		-0.355781787		2.048463894
F		-4.276809275		0.211608834		-0.580807493
F		0.746995099		1.246512771		-3.233907592
