12
-186.56215295
Al		-0.364963769		1.037635121		-1.819555956
Al		-0.44814508		1.075556187		1.281640944
Al		-3.019142529		0.45494618		-1.858744411
F		-3.528268877		0.298834598		-3.59942432
F		-1.374097606		-0.561158634		-1.833838189
F		-1.948396366		2.065503651		-1.900863681
F		-2.038027635		0.733159542		0.455392676
F		0.594366006		1.279428697		-0.294952108
F		-0.289790164		2.732791473		2.005408921
F		0.358586731		-0.36594306		2.035626152
F		-4.277415224		0.214412583		-0.580860958
F		0.746833039		1.24726265		-3.233921911
