12
-186.56215295
Al		-0.365009551		1.037846963		-1.819559996
Al		-0.448158158		1.075616699		1.28163979
Al		-3.019104501		0.454770224		-1.858741055
F		-3.528101161		0.298058562		-3.599409518
F		-1.373946262		-0.561110894		-1.833426211
F		-1.948550672		2.065469615		-1.901275921
F		-2.038211511		0.734010356		0.45537645
F		0.594265986		1.279891497		-0.294960934
F		-0.28920349		2.732482491		2.006119221
F		0.358185537		-0.366492318		2.03493222
F		-4.277447978		0.214564137		-0.580863848
F		0.746824279		1.247303184		-3.233922685
