12
-186.56215295
Al		-0.365055333		1.038058805		-1.819564036
Al		-0.448171236		1.075677211		1.281638636
Al		-3.019066473		0.454594268		-1.858737699
F		-3.527933445		0.297282526		-3.599394716
F		-1.373794918		-0.561063154		-1.833014233
F		-1.948704978		2.065435579		-1.901688161
F		-2.038395387		0.73486117		0.455360224
F		0.594165966		1.280354297		-0.29496976
F		-0.288616816		2.732173509		2.006829521
F		0.357784343		-0.367041576		2.034238288
F		-4.277480732		0.214715691		-0.580866738
F		0.746815519		1.247343718		-3.233923459
