12
-186.56215295
Al		-0.365078224		1.038164726		-1.819566056
Al		-0.448177775		1.075707467		1.281638059
Al		-3.019047459		0.45450629		-1.858736021
F		-3.527849587		0.296894508		-3.599387315
F		-1.373719246		-0.561039284		-1.832808244
F		-1.948782131		2.065418561		-1.901894281
F		-2.038487325		0.735286577		0.455352111
F		0.594115956		1.280585697		-0.294974173
F		-0.288323479		2.732019018		2.007184671
F		0.357583746		-0.367316205		2.033891322
F		-4.277497109		0.214791468		-0.580868183
F		0.746811139		1.247363985		-3.233923846
