12
-186.56215295
Al		-0.365124006		1.038376568		-1.819570096
Al		-0.448190853		1.075767979		1.281636905
Al		-3.019009431		0.454330334		-1.858732665
F		-3.527681871		0.296118472		-3.599372513
F		-1.373567902		-0.560991544		-1.832396266
F		-1.948936437		2.065384525		-1.902306521
F		-2.038671201		0.736137391		0.455335885
F		0.594015936		1.281048497		-0.294982999
F		-0.287736805		2.731710036		2.007894971
F		0.357182552		-0.367865463		2.03319739
F		-4.277529863		0.214943022		-0.580871073
F		0.746802379		1.247404519		-3.23392462
