12
-186.56215295
Al		-0.365261352		1.039012094		-1.819582216
Al		-0.448230087		1.075949515		1.281633443
Al		-3.018895347		0.453802466		-1.858722597
F		-3.527178723		0.293790364		-3.599328107
F		-1.37311387		-0.560848324		-1.831160332
F		-1.949399355		2.065282417		-1.903543241
F		-2.039222829		0.738689833		0.455287207
F		0.593715876		1.282436897		-0.295009477
F		-0.285976783		2.73078309		2.010025871
F		0.35597897		-0.369513237		2.031115594
F		-4.277628125		0.215397684		-0.580879743
F		0.746776099		1.247526121		-3.233926942
