12
-186.56215295
Al		-0.365330025		1.039329857		-1.819588276
Al		-0.448249704		1.076040283		1.281631712
Al		-3.018838305		0.453538532		-1.858717563
F		-3.526927149		0.29262631		-3.599305904
F		-1.372886854		-0.560776714		-1.830542365
F		-1.949630814		2.065231363		-1.904161601
F		-2.039498643		0.739966054		0.455262868
F		0.593565846		1.283131097		-0.295022716
F		-0.285096772		2.730319617		2.011091321
F		0.355377179		-0.370337124		2.030074696
F		-4.277677256		0.215625015		-0.580884078
F		0.746762959		1.247586922		-3.233928103
