12
-186.56215295
Al		-0.365375807		1.039541699		-1.819592316
Al		-0.448262782		1.076100795		1.281630558
Al		-3.018800277		0.453362576		-1.858714207
F		-3.526759433		0.291850274		-3.599291102
F		-1.37273551		-0.560728974		-1.830130387
F		-1.94978512		2.065197327		-1.904573841
F		-2.039682519		0.740816868		0.455246642
F		0.593465826		1.283593897		-0.295031542
F		-0.284510098		2.730010635		2.011801621
F		0.354975985		-0.370886382		2.029380764
F		-4.27771001		0.215776569		-0.580886968
F		0.746754199		1.247627456		-3.233928877
