12
-186.56215295
Al		-0.364162584		1.033927886		-1.819485256
Al		-0.447916215		1.074497227		1.281661139
Al		-3.019808019		0.45802541		-1.858803141
F		-3.531203907		0.312415228		-3.599683355
F		-1.376746126		-0.561994084		-1.841047804
F		-1.945696011		2.066099281		-1.893649481
F		-2.034809805		0.718270297		0.455676631
F		0.596116356		1.271329697		-0.294797653
F		-0.300056959		2.738198658		1.992978671
F		0.365607626		-0.356331045		2.047769962
F		-4.276842029		0.211760388		-0.580810383
F		0.746986339		1.246553305		-3.233908366
