12
-186.56215295
Al		-0.365398698		1.03964762		-1.819594336
Al		-0.448269321		1.076131051		1.281629981
Al		-3.018781263		0.453274598		-1.858712529
F		-3.526675575		0.291462256		-3.599283701
F		-1.372659838		-0.560705104		-1.829924398
F		-1.949862273		2.065180309		-1.904779961
F		-2.039774457		0.741242275		0.455238529
F		0.593415816		1.283825297		-0.295035955
F		-0.284216761		2.729856144		2.012156771
F		0.354775388		-0.371161011		2.029033798
F		-4.277726387		0.215852346		-0.580888413
F		0.746749819		1.247647723		-3.233929264
