12
-186.56215295
Al		-0.36544448		1.039859462		-1.819598376
Al		-0.448282399		1.076191563		1.281628827
Al		-3.018743235		0.453098642		-1.858709173
F		-3.526507859		0.29068622		-3.599268899
F		-1.372508494		-0.560657364		-1.82951242
F		-1.950016579		2.065146273		-1.905192201
F		-2.039958333		0.742093089		0.455222303
F		0.593315796		1.284288097		-0.295044781
F		-0.283630087		2.729547162		2.012867071
F		0.354374194		-0.371710269		2.028339866
F		-4.277759141		0.2160039		-0.580891303
F		0.746741059		1.247688257		-3.233930038
