12
-186.56215295
Al		-0.365490262		1.040071304		-1.819602416
Al		-0.448295477		1.076252075		1.281627673
Al		-3.018705207		0.452922686		-1.858705817
F		-3.526340143		0.289910184		-3.599254097
F		-1.37235715		-0.560609624		-1.829100442
F		-1.950170885		2.065112237		-1.905604441
F		-2.040142209		0.742943903		0.455206077
F		0.593215776		1.284750897		-0.295053607
F		-0.283043413		2.72923818		2.013577371
F		0.353973		-0.372259527		2.027645934
F		-4.277791895		0.216155454		-0.580894193
F		0.746732299		1.247728791		-3.233930812
