12
-186.56215295
Al		-0.365719172		1.041130514		-1.819622616
Al		-0.448360867		1.076554635		1.281621903
Al		-3.018515067		0.452042906		-1.858689037
F		-3.525501563		0.286030004		-3.599180087
F		-1.37160043		-0.560370924		-1.827040552
F		-1.950942415		2.064942057		-1.907665641
F		-2.041061589		0.747197973		0.455124947
F		0.592715676		1.287064897		-0.295097737
F		-0.280110043		2.72769327		2.017128871
F		0.35196703		-0.375005817		2.024176274
F		-4.277955665		0.216913224		-0.580908643
F		0.746688499		1.247931461		-3.233934682
