12
-186.56215295
Al		-0.365764954		1.041342356		-1.819626656
Al		-0.448373945		1.076615147		1.281620749
Al		-3.018477039		0.45186695		-1.858685681
F		-3.525333847		0.285253968		-3.599165285
F		-1.371449086		-0.560323184		-1.826628574
F		-1.951096721		2.064908021		-1.908077881
F		-2.041245465		0.748048787		0.455108721
F		0.592615656		1.287527697		-0.295106563
F		-0.279523369		2.727384288		2.017839171
F		0.351565836		-0.375555075		2.023482342
F		-4.277988419		0.217064778		-0.580911533
F		0.746679739		1.247971995		-3.233935456
