12
-186.56215295
Al		-0.365787845		1.041448277		-1.819628676
Al		-0.448380484		1.076645403		1.281620172
Al		-3.018458025		0.451778972		-1.858684003
F		-3.525249989		0.28486595		-3.599157884
F		-1.371373414		-0.560299314		-1.826422585
F		-1.951173874		2.064891003		-1.908284001
F		-2.041337403		0.748474194		0.455100608
F		0.592565646		1.287759097		-0.295110976
F		-0.279230032		2.727229797		2.018194321
F		0.351365239		-0.375829704		2.023135376
F		-4.278004796		0.217140555		-0.580912978
F		0.746675359		1.247992262		-3.233935843
