12
-186.56215295
Al		-0.365810736		1.041554198		-1.819630696
Al		-0.448387023		1.076675659		1.281619595
Al		-3.018439011		0.451690994		-1.858682325
F		-3.525166131		0.284477932		-3.599150483
F		-1.371297742		-0.560275444		-1.826216596
F		-1.951251027		2.064873985		-1.908490121
F		-2.041429341		0.748899601		0.455092495
F		0.592515636		1.287990497		-0.295115389
F		-0.278936695		2.727075306		2.018549471
F		0.351164642		-0.376104333		2.02278841
F		-4.278021173		0.217216332		-0.580914423
F		0.746670979		1.248012529		-3.23393623
