12
-186.56215295
Al		-0.365833627		1.041660119		-1.819632716
Al		-0.448393562		1.076705915		1.281619018
Al		-3.018419997		0.451603016		-1.858680647
F		-3.525082273		0.284089914		-3.599143082
F		-1.37122207		-0.560251574		-1.826010607
F		-1.95132818		2.064856967		-1.908696241
F		-2.041521279		0.749325008		0.455084382
F		0.592465626		1.288221897		-0.295119802
F		-0.278643358		2.726920815		2.018904621
F		0.350964045		-0.376378962		2.022441444
F		-4.27803755		0.217292109		-0.580915868
F		0.746666599		1.248032796		-3.233936617
