12
-186.56215295
Al		-0.365970973		1.042295645		-1.819644836
Al		-0.448432796		1.076887451		1.281615556
Al		-3.018305913		0.451075148		-1.858670579
F		-3.524579125		0.281761806		-3.599098676
F		-1.370768038		-0.560108354		-1.824774673
F		-1.951791098		2.064754859		-1.909932961
F		-2.042072907		0.75187745		0.455035704
F		0.592165566		1.289610297		-0.29514628
F		-0.276883336		2.725993869		2.021035521
F		0.349760463		-0.378026736		2.020359648
F		-4.278135812		0.217746771		-0.580924538
F		0.746640319		1.248154398		-3.233938939
