12
-186.56215295
Al		-0.366039646		1.042613408		-1.819650896
Al		-0.448452413		1.076978219		1.281613825
Al		-3.018248871		0.450811214		-1.858665545
F		-3.524327551		0.280597752		-3.599076473
F		-1.370541022		-0.560036744		-1.824156706
F		-1.952022557		2.064703805		-1.910551321
F		-2.042348721		0.753153671		0.455011365
F		0.592015536		1.290304497		-0.295159519
F		-0.276003325		2.725530396		2.022100971
F		0.349158672		-0.378850623		2.01931875
F		-4.278184943		0.217974102		-0.580928873
F		0.746627179		1.248215199		-3.2339401
