12
-186.56215295
Al		-0.366085428		1.04282525		-1.819654936
Al		-0.448465491		1.077038731		1.281612671
Al		-3.018210843		0.450635258		-1.858662189
F		-3.524159835		0.279821716		-3.599061671
F		-1.370389678		-0.559989004		-1.823744728
F		-1.952176863		2.064669769		-1.910963561
F		-2.042532597		0.754004485		0.454995139
F		0.591915516		1.290767297		-0.295168345
F		-0.275416651		2.725221414		2.022811271
F		0.348757478		-0.379399881		2.018624818
F		-4.278217697		0.218125656		-0.580931763
F		0.746618419		1.248255733		-3.233940874
