      12
SCF Done            -185.95764268
Al           -0.389338238         1.150418860        -1.821707136
Al           -0.445783614         1.064629653         1.281849636
Al           -2.963326619         0.196680289        -1.853818442
F            -3.584140561         0.557355908        -3.604354508
F            -1.201527657        -0.606138801        -1.780261645
F            -2.086580087         1.951377903        -1.951405583
F            -2.046613325         0.772884739         0.454635424
F             0.607388827         1.219170743        -0.293802611
F            -0.318212675         2.733992597         1.985879747
F             0.383823615        -0.352405758         2.054873845
F            -4.306755392         0.350170670        -0.583450065
F             0.756125627         1.204266237        -3.233102029
