      12
SCF Done            -167.39914641
Al           -1.686946189         2.549078285        -1.219644406
Al           -0.539437370         0.009103404        -2.360058556
Al           -2.215778986        -0.331973512        -0.520594649
F            -0.642165280         3.526093511        -0.086354173
F            -2.985033170         3.279466866        -2.267187519
F            -1.274164288        -1.680603837        -1.627743354
F            -2.653584080         1.450723110        -0.015415215
F            -3.220965330        -1.321320946         0.613988564
F             0.638844690        -0.535984460        -3.621414400
F            -0.416627093         1.905865522        -2.470047722
F            -2.482040957         0.395441751        -2.343561628
F            -0.350088363         0.319875580        -0.414681188
