12
Properties=species:S:1:pos:R:3:forces:R:3 energy=-184.07082990 pbc="F F F"
Al    0.100632943    1.522143996    1.860915421    2.768565    1.040822    -3.332766
Al    2.7892083960000003    2.6272146249999997    1.905729075    1.13163    1.068021    -0.152754
Al    1.3228940580000002    2.9167837810000004    -0.624661553    -0.141924    2.036382    -1.403757
F    1.056686152    3.387841019    2.647262332    0.260197    -0.398049    1.231947
F    -1.593191047    2.233449643    2.427466295    -2.213226    -0.787112    1.701205
F    -1.03429136    0.296259082    2.91257266    -1.647938    0.101261    1.038625
F    1.898990169    0.9290585849999999    1.963996734    0.499522    0.152947    0.277402
F    2.845541442    1.654608772    -0.36523455400000004    -0.418807    -1.998749    0.818754
F    1.110304714    2.927327652    -2.454160004    -0.208759    -0.301946    -0.550017
F    1.583137668    3.8514597870000005    1.031212965    -0.555769    0.212324    0.575375
F    4.372512066    3.267395811    2.6273625679999997    0.252961    -0.155138    0.401579
F    -0.08376779999999999    1.722251368    -0.098290795    0.273548    -0.970763    -0.605593
