12
Properties=species:S:1:pos:R:3:forces:R:3 energy=-185.94051626 pbc="F F F"
Al    -0.014910656999999994    1.6940362960000002    2.258728521    0.171863    0.587434    1.186914
Al    2.319329696    2.647045825    1.546456775    -0.498143    0.207639    -0.829544
Al    1.527034258    2.673751681    -0.43476725299999996    0.86294    0.373915    0.178677
F    0.970292652    3.246707919    2.985549132    -0.147636    0.315781    0.06733
F    -1.565877747    2.652034943    2.1959525949999996    -0.447561    0.291929    -0.077731
F    -0.52070236    0.025165582000000006    2.73211876    -0.233948    -0.539438    -0.099813
F    2.078318969    0.8501423850000001    1.960030534    1.191599    -0.107252    -0.391407
F    3.2407365419999996    1.5223228720000002    -0.40468305400000004    0.274878    -0.313017    0.470851
F    1.115099714    2.926380752    -2.034126704    -0.302002    -0.119726    -0.172859
F    1.733815568    4.363994087    0.834918865    0.363994    -0.008144    0.746646
F    3.7495428660000005    3.003262211    2.303713868    -0.34401    -0.193298    -0.217616
F    -0.1909545    1.740781068    -0.153496195    -0.891974    -0.495824    -0.861448
