      12
SCF Done            -185.94051626
Al           -0.095149657         1.668242296         2.309986521
Al            2.505548696         2.613069825         1.726476775
Al            1.399313258         2.684863681        -0.662182253
F             0.996284652         3.130596919         2.849314132
F            -1.615246747         2.710961943         2.170149595
F            -0.512243360        -0.069721418         2.747857760
F             1.931522969         0.856565385         1.898833534
F             2.994877542         1.827949872        -0.031491054
F             1.066934714         3.028602752        -2.416156704
F             1.774804568         4.026987087         0.696344865
F             4.070575866         3.105518211         2.436970868
F            -0.071331500         1.771314068         0.063550805
