12
Properties=species:S:1:pos:R:3:forces:R:3 energy=-186.35088403 pbc="F F F"
Al    -1.4092335610000002    2.59386472    -1.212544691    -0.005988    -0.00014    0.005756
Al    -0.694453355    -0.145864494    -2.385096474    -0.014315    -0.000844    -0.036325
Al    -2.354844576    -0.23090351800000003    -0.497038137    0.025449    0.003134    0.024633
F    -0.32874574100000004    3.580137736    -0.169788057    0.002477    0.002558    0.002587
F    -2.721039047    3.391605793    -2.259074792    -0.002181    0.001235    -0.003057
F    -1.72515088    -1.687614927    -1.736958461    -0.000205    -0.002362    -0.000512
F    -2.3936465620000003    1.581607483    0.087532062    -0.000686    -0.000418    -0.000718
F    -3.474247263    -1.078319532    0.643411453    -0.007626    -0.003486    0.002433
F    0.375815298    -0.786374141    -3.710773104    0.002524    0.000264    0.003183
F    -0.21342482499999998    1.746112214    -2.377670231    0.004667    -0.000264    -0.002224
F    -2.525885357    0.614256351    -2.276561428    0.008153    0.003176    -0.015929
F    -0.359992868    -0.010994760999999992    -0.439227608    -0.012269    -0.002851    0.020172
