12
Properties=species:S:1:pos:R:3:forces:R:3 energy=-187.24267635 pbc="F F F"
Al    0.375985493    -0.581261158    1.7814184389999999    0.027254    -0.01112    0.061451
Al    2.329220565    -1.818258472    -0.559512497    -0.042222    0.02673    -0.04483
Al    -0.904430281    -1.811265458    -1.024522843    0.003507    -0.018118    -0.012751
F    3.339438407    -0.366146593    -1.0159223800000001    0.035315    0.045061    -0.017818
F    -1.822736154    -0.8133503879999999    -2.272786297    -0.029338    0.04098    -0.038129
F    2.905973995    -3.540800794    -0.6342423429999999    0.021471    -0.075416    -0.006249
F    -1.215942566    -3.602975302    -0.6002817199999999    -0.005693    -0.048217    -0.000743
F    1.747137197    -1.639088993    1.1722708020000001    0.017877    -0.018295    0.049253
F    0.8294896639999999    -1.633893282    -1.574995865    0.030076    0.000107    0.004541
F    -0.089697548    -1.443498563    3.3452444889999997    -0.006164    -0.007419    0.017981
F    0.825309871    1.234905999    1.626067236    0.00897    0.082143    -0.020372
F    -1.0765810679999999    -0.8530995829999999    0.589892614    -0.061053    -0.016436    0.007666
