12
Properties=species:S:1:pos:R:3:forces:R:3 energy=-187.00247604 pbc="F F F"
Al    1.12735428    0.20145931699999997    2.536757673    0.729622    -0.734399    -0.624076
Al    1.392316    1.0657674    -0.1422948    -0.695556    0.556347    0.325615
Al    -0.483545362    0.99280325    -2.256620173    0.881477    -0.809002    -0.172186
F    -1.652099372    -0.560274053    -2.272616206    -0.538088    0.103245    0.171783
F    2.0617246529999997    -0.355898553    0.904762252    0.032566    -0.003304    -0.24912
F    0.17356073900000002    1.7621276899999998    -3.906611133    -0.196664    0.49255    -0.123297
F    -0.32201441    2.012715353    -0.642634849    -0.09948    0.018871    -0.166684
F    2.5931417569999997    2.4864195120000003    -0.311316043    0.252943    -0.022053    -0.088647
F    1.173521639    0.080424405    -1.738164254    0.17265    -0.072121    0.167703
F    0.40470991700000003    1.655715029    1.519806439    0.020323    -0.039981    0.189797
F    2.7018095690000004    0.520139476    3.616413637    -0.037081    0.414162    0.35155
F    0.048590075    -1.395730952    2.787922471    -0.522711    0.095684    0.21756
