12
Properties=species:S:1:pos:R:3:forces:R:3 energy=-178.59816556 pbc="F F F"
Al    -1.515321261    2.86569132    -1.567037391    16.342253    -13.768355    -12.314522
Al    -0.647173255    -0.21213069399999998    -2.205315574    -0.798633    4.626864    0.307103
Al    -2.227744676    -0.039181518000000026    -0.3756163370000001    2.528261    -2.248947    -3.340025
F    -0.816281841    3.551374536    -0.31327855699999996    -0.099993    1.024936    1.586501
F    -2.717623547    3.0593021929999997    -2.1918892920000004    -1.802311    0.484274    0.020288
F    -1.28857968    -1.878381527    -1.8713558609999998    -0.718375    0.189933    1.008733
F    -2.597191162    1.086995983    0.15925606199999998    -1.270953    0.713189    1.90161
F    -3.288921363    -1.3272931319999999    0.6433673529999999    -0.153204    0.8661    0.302598
F    0.757208098    -0.615506541    -3.800671804    0.127309    -0.038547    -0.058883
F    -0.723103625    2.3560388139999997    -2.0597432309999997    -12.405124    9.301673    8.923261
F    -2.405165457    0.486521851    -2.284215728    -1.045183    -0.68356    0.586066
F    -0.368038568    0.15794703899999998    -0.457079308    -0.704047    -0.467559    1.07727
