      12
SCF Done            -178.59816556
Al           -1.349282261         2.630850320        -1.615765391
Al           -0.509230255         0.101517306        -2.372262574
Al           -2.160834676        -0.427559518        -0.558841337
F            -0.770549841         3.683053536        -0.147406557
F            -3.030154547         3.173657193        -2.301428292
F            -1.401862680        -1.680000527        -1.693703861
F            -2.669132162         1.303946983         0.274847062
F            -3.248086363        -1.288204132         0.603517353
F             0.623033098        -0.530650541        -3.644761804
F            -0.562706625         1.965707814        -2.165589231
F            -2.489464457         0.467337851        -2.266248728
F            -0.340741568         0.151046039        -0.359491308
