12
Properties=species:S:1:pos:R:3:forces:R:3 energy=-184.07881468 pbc="F F F"
Al    0.36204099300000003    -0.754734558    1.5840615390000001    1.162904    -7.407456    -7.329495
Al    2.817938765    -1.923447672    -0.674033697    2.954705    -1.4221    -1.648408
Al    -0.6101809810000001    -1.757890958    -0.852282743    -2.324966    -1.489901    -2.417556
F    3.208789107    -0.831448393    -0.9719755800000001    -1.294836    -1.501195    0.707458
F    -1.998261454    -0.31176728800000003    -2.040633997    1.076546    -1.470738    1.052924
F    2.6618365949999996    -3.1327398939999997    -0.507831843    -0.539267    2.634714    -0.01266
F    -1.263299966    -3.905610202    -1.06323712    0.454036    2.647464    0.132047
F    1.7636165970000002    -1.340003193    1.345483202    -4.072193    2.030698    2.567814
F    0.581604164    -1.505965682    -1.538710865    0.062766    0.215017    -0.449804
F    0.090617352    -1.212076763    3.5802286889999997    -0.641693    -0.792533    4.47463
F    0.41206337099999996    1.271217099    1.162130336    0.043918    4.43299    -0.692255
F    -0.930970268    -1.421091383    0.836190214    3.118079    2.12304    3.615304
