      12
SCF Done            -168.68919378
Al            0.374141995        -0.754579478         1.585824517
Al            2.427955763        -1.823664654        -0.570264690
Al           -0.951720982        -1.867068940        -1.062621736
F             3.439667111        -0.535206393        -1.093383603
F            -1.804236451        -0.602552289        -1.857325021
F             2.719880587        -3.493224877        -0.491167792
F            -1.211997973        -3.543721185        -1.063971069
F             1.809407596        -1.362656132         1.293784200
F             0.833590164        -1.502729682        -1.502000865
F             0.089493351        -1.212090641         3.580064681
F             0.409896379         1.271189166         1.161814272
F            -0.902414269        -1.397483321         0.898721212
