12
Properties=species:S:1:pos:R:3:forces:R:3 energy=-186.55987848 pbc="F F F"
Al    -0.061509937999999986    0.83724466    -1.7253860360000002    0.084324    -0.180251    0.008888
Al    -0.15046301399999995    0.971013553    1.374387036    0.013256    0.060743    0.002786
Al    -2.748450519    0.40527048900000007    -1.754650942    -0.102212    0.092437    0.019726
F    -3.306980561    0.25174420799999997    -3.509898208    -0.002768    -0.012089    -0.027216
F    -1.195822157    -0.6811396009999999    -1.727255245    0.109797    0.016421    -7.8e-05
F    -1.644263987    1.971827003    -1.841243383    -0.121468    0.066191    -0.007808
F    -1.799339325    0.681436339    0.538951724    -0.032236    -0.007198    -0.012817
F    0.858019127    1.098148843    -0.219559611    0.015943    0.0097    0.006587
F    0.02204942500000001    2.662722997    2.029212347    -0.003714    0.00733    0.005349
F    0.549907515    -0.46007545800000005    2.1633850449999996    0.023031    -0.055118    0.026632
F    -4.062702792    0.25423407    -0.48997986499999996    -0.003278    -0.013165    0.001883
F    1.013371327    0.997641337    -3.157835029    0.019325    0.014997    -0.023933
