12
Properties=species:S:1:pos:R:3:forces:R:3 energy=-184.58168854 pbc="F F F"
Al    -0.111579457    1.9069143960000001    1.963767321    2.292977    0.872972    -2.809712
Al    2.426937696    2.794296225    1.772322575    1.007781    0.974925    -0.032539
Al    1.4405964580000001    2.7587319810000004    -0.8229634530000001    -0.096658    1.72839    -1.27638
F    1.104013952    2.708848519    3.3691568320000003    0.252015    -0.355215    1.072401
F    -1.828943147    2.6678597429999997    2.385853495    -1.857914    -0.698314    1.448243
F    -0.25783325999999995    0.117511382    2.68602506    -1.403523    0.13462    0.863744
F    1.889971969    1.020850585    1.826007234    0.443186    0.150217    0.236701
F    2.549359542    1.5277616719999998    0.245429346    -0.427328    -1.719938    0.66155
F    1.029553714    3.044799352    -2.586257204    -0.178075    -0.264114    -0.465782
F    1.7790404679999998    4.232407987    0.46170866499999996    -0.496669    0.164108    0.498627
F    4.083426166000001    3.006841011    2.4909619679999997    0.216683    -0.137988    0.353366
F    0.3516488    1.473503368    0.08601890499999999    0.247524    -0.849661    -0.550219
