12
Properties=species:S:1:pos:R:3:forces:R:3 energy=-187.28711047 pbc="F F F"
Al    1.21679468    -0.051143983    2.2996903730000002    0.015631    -0.186246    -0.413062
Al    1.4449569999999998    1.347234    -0.113517    0.073977    0.069495    -0.01339
Al    -0.392952462    0.80464065    -2.1528240729999997    -0.103957    0.103273    0.429028
F    -1.938559872    -0.088655453    -1.653734706    -0.467318    -0.306869    0.096721
F    2.499835753    -0.027074553    0.841573652    0.269632    -0.175802    -0.034625
F    0.10584713899999998    1.26166969    -3.935219433    0.334504    0.325424    -0.762306
F    -0.037066210000000016    2.320261553    -0.991308549    -0.153995    0.284437    0.013698
F    2.729920557    2.554394512    -0.346057443    -0.015653    -0.014705    0.002833
F    1.109115239    -0.11229969499999999    -1.364550354    0.259327    -0.382703    -0.072495
F    0.234736917    1.354319229    1.417309439    -0.350262    0.297275    0.088955
F    2.024019069    0.718767876    3.8457304370000003    0.478094    0.437968    0.615265
F    0.17783237500000004    -1.585922352    2.2683401709999997    -0.339979    -0.451547    0.049379
