12
Properties=species:S:1:pos:R:3:forces:R:3 energy=-172.37089734 pbc="F F F"
Al    -0.691328638    0.9524102600000001    -2.0277822359999997    -13.354096    -2.881448    0.242569
Al    -0.652026014    1.778157053    1.238619136    -3.347261    -0.770877    -2.488465
Al    -3.447490919    0.367414189    -2.042601642    -7.108992    -1.782572    -12.907668
F    -3.404629961    0.349397208    -3.2050589080000003    -0.31039    0.332835    20.968005
F    -1.1919465569999999    -0.5039714009999999    -1.832682745    4.646723    4.791105    -0.196503
F    -1.7718991869999998    2.091814403    -1.877845583    6.211505    -2.449297    -0.058409
F    -1.967870125    0.725330739    0.486066824    2.33924    0.5347    1.528272
F    0.731428827    1.2816745429999998    -0.020656411    1.360122    0.365438    3.748408
F    -0.33348937500000003    2.326567397    1.8202175469999997    0.548711    1.102937    0.077523
F    0.600506415    -0.7650221580000001    2.256694545    0.95444    -0.774425    0.113321
F    -4.077692691999999    0.24996137000000002    -0.768441165    5.391315    0.992881    -9.033064
F    0.801678327    1.257158437    -3.287239929    2.668682    0.538722    -1.99399
