12
Properties=species:S:1:pos:R:3:forces:R:3 energy=-187.35959255 pbc="F F F"
Al    1.2184121799999998    -0.137820183    2.403869073    -0.731078    -0.599431    -0.055289
Al    1.343741    1.1291944999999999    -0.0655095    0.06856    -0.01316    0.103728
Al    -0.355561562    1.12378225    -2.285183273    0.550639    0.657844    -0.375967
F    -1.991295172    0.20559904699999998    -2.131185106    -0.427443    -0.374577    0.027107
F    2.149259753    -0.410037953    0.779083952    0.052833    0.037694    -0.063725
F    0.402628639    1.72783379    -3.8918203329999996    -0.111801    -0.217984    0.273988
F    -0.09190681000000003    2.309572253    -0.819027049    -0.080628    -0.020204    -0.035044
F    2.791716057    2.217122512    -0.275959943    0.034742    0.037325    -0.015177
F    0.9935452389999999    -0.10535659500000001    -1.519731754    -0.034842    -0.054547    -0.02915
F    0.37183061700000003    1.382778929    1.563950039    0.015243    0.083674    -0.045121
F    2.359602969    0.47752657600000004    3.7124764370000003    0.311855    0.139365    0.274291
F    -0.00557282499999999    -1.426763852    2.640670571    0.351921    0.324002    -0.059642
