12
-186.56215295
Al		-0.368456938		1.05379826		-1.819864236
Al		-0.447115081		1.070790291		1.281731901
Al		-3.018169603		0.450444378		-1.858658609
F		-3.530707655		0.310118836		-3.599639561
F		-1.366191558		-0.552232804		-1.863955438
F		-1.959518693		2.071460489		-1.871030261
F		-2.026533377		0.679974355		0.456407009
F		0.585988916		1.318190497		-0.295691375
F		-0.265345581		2.741592304		1.970958871
F		0.332418608		-0.366769371		2.069924158
F		-4.277611867		0.215322826		-0.580878313
F		0.753066819		1.218417703		-3.233371844
