12
-186.56215295
Al		-0.364601359		1.035958127		-1.819523979
Al		-0.447777934		1.073857389		1.28167335
Al		-3.019694278		0.457499121		-1.858793111
F		-3.531577133		0.314142151		-3.599716295
F		-1.37576904		-0.560849719		-1.845101059
F		-1.947090221		2.066885072		-1.889633036
F		-2.033253953		0.7110712		0.45581393
F		0.595060841		1.276213693		-0.294890801
F		-0.297075699		2.739446275		1.988262214
F		0.36234017		-0.356254464		2.05246117
F		-4.27685662		0.211827949		-0.580811671
F		0.747799665		1.242789883		-3.233836598
