12
-186.56215295
Al		-0.364689993		1.036368245		-1.819531801
Al		-0.447762696		1.073786881		1.281674696
Al		-3.019659228		0.457336943		-1.858790019
F		-3.531557145		0.314049661		-3.599714531
F		-1.375548868		-0.560651629		-1.845534493
F		-1.947375933		2.066990254		-1.889205386
F		-2.033099457		0.71035633		0.455827564
F		0.594852291		1.277178677		-0.294909205
F		-0.296346271		2.739495609		1.987864436
F		0.361652318		-0.356496186		2.052862618
F		-4.276873982		0.211908291		-0.580813203
F		0.747920749		1.242229603		-3.233825914
