12
-186.56215295
Al		-0.364911578		1.03739354		-1.819551356
Al		-0.447724601		1.073610611		1.281678061
Al		-3.019571603		0.456931498		-1.858782289
F		-3.531507175		0.313818436		-3.599710121
F		-1.374998438		-0.560156404		-1.846618078
F		-1.948090213		2.067253209		-1.888136261
F		-2.032713217		0.708569155		0.455861649
F		0.594330916		1.279591137		-0.294955215
F		-0.294522701		2.739618944		1.986869991
F		0.359932688		-0.357100491		2.053866238
F		-4.276917387		0.212109146		-0.580817033
F		0.748223459		1.240828903		-3.233799204
