12
-186.56215295
Al		-0.365088846		1.038213776		-1.819567
Al		-0.447694125		1.073469595		1.281680753
Al		-3.019501503		0.456607142		-1.858776105
F		-3.531467199		0.313633456		-3.599706593
F		-1.374558094		-0.559760224		-1.847484946
F		-1.948661637		2.067463573		-1.887280961
F		-2.032404225		0.707139415		0.455888917
F		0.593913816		1.281521105		-0.294992023
F		-0.293063845		2.739717612		1.986074435
F		0.358556984		-0.357583935		2.054669134
F		-4.276952111		0.21226983		-0.580820097
F		0.748465627		1.239708343		-3.233777836
