12
-186.56215295
Al		-0.365221797		1.038828953		-1.819578733
Al		-0.447671268		1.073363833		1.281682772
Al		-3.019448928		0.456363875		-1.858771467
F		-3.531437217		0.313494721		-3.599703947
F		-1.374227836		-0.559463089		-1.848135097
F		-1.949090205		2.067621346		-1.886639486
F		-2.032172481		0.70606711		0.455909368
F		0.593600991		1.282968581		-0.295019629
F		-0.291969703		2.739791613		1.985477768
F		0.357525206		-0.357946518		2.055271306
F		-4.276978154		0.212390343		-0.580822395
F		0.748647253		1.238867923		-3.23376181
