12
-186.56215295
Al		-0.365310431		1.039239071		-1.819586555
Al		-0.44765603		1.073293325		1.281684118
Al		-3.019413878		0.456201697		-1.858768375
F		-3.531417229		0.313402231		-3.599702183
F		-1.374007664		-0.559264999		-1.848568531
F		-1.949375917		2.067726528		-1.886211836
F		-2.032017985		0.70535224		0.455923002
F		0.593392441		1.283933565		-0.295038033
F		-0.291240275		2.739840947		1.98507999
F		0.356837354		-0.35818824		2.055672754
F		-4.276995516		0.212470685		-0.580823927
F		0.748768337		1.238307643		-3.233751126
