12
-186.56215295
Al		-0.364158189		1.033907537		-1.819484869
Al		-0.447854124		1.074209929		1.28166662
Al		-3.019869528		0.458310011		-1.858808571
F		-3.531677073		0.314604601		-3.599725115
F		-1.3768699		-0.561840169		-1.842933889
F		-1.945661661		2.066359162		-1.891771286
F		-2.034026433		0.71464555		0.45574576
F		0.596103591		1.271388773		-0.294798781
F		-0.300722839		2.739199605		1.990251104
F		0.36577943		-0.355045854		2.05045393
F		-4.27676981		0.211426239		-0.580804011
F		0.747194245		1.245591283		-3.233890018
