12
-186.56215295
Al		-0.365532016		1.040264366		-1.81960611
Al		-0.447617935		1.073117055		1.281687483
Al		-3.019326253		0.455796252		-1.858760645
F		-3.531367259		0.313171006		-3.599697773
F		-1.373457234		-0.558769774		-1.849652116
F		-1.950090197		2.067989483		-1.885142711
F		-2.031631745		0.703565065		0.455957087
F		0.592871066		1.286346025		-0.295084043
F		-0.289416705		2.739964282		1.984085545
F		0.355117724		-0.358792545		2.056676374
F		-4.277038921		0.21267154		-0.580827757
F		0.749071047		1.236906943		-3.233724416
