12
-186.56215295
Al		-0.36562065		1.040674484		-1.819613932
Al		-0.447602697		1.073046547		1.281688829
Al		-3.019291203		0.455634074		-1.858757553
F		-3.531347271		0.313078516		-3.599696009
F		-1.373237062		-0.558571684		-1.85008555
F		-1.950375909		2.068094665		-1.884715061
F		-2.031477249		0.702850195		0.455970721
F		0.592662516		1.287311009		-0.295102447
F		-0.288687277		2.740013616		1.983687767
F		0.354429872		-0.359034267		2.057077822
F		-4.277056283		0.212751882		-0.580829289
F		0.749192131		1.236346663		-3.233713732
