12
-186.56215295
Al		-0.365709284		1.041084602		-1.819621754
Al		-0.447587459		1.072976039		1.281690175
Al		-3.019256153		0.455471896		-1.858754461
F		-3.531327283		0.312986026		-3.599694245
F		-1.37301689		-0.558373594		-1.850518984
F		-1.950661621		2.068199847		-1.884287411
F		-2.031322753		0.702135325		0.455984355
F		0.592453966		1.288275993		-0.295120851
F		-0.287957849		2.74006295		1.983289989
F		0.35374202		-0.359275989		2.05747927
F		-4.277073645		0.212832224		-0.580830821
F		0.749313215		1.235786383		-3.233703048
