12
-186.56215295
Al		-0.365753601		1.041289661		-1.819625665
Al		-0.44757984		1.072940785		1.281690848
Al		-3.019238628		0.455390807		-1.858752915
F		-3.531317289		0.312939781		-3.599693363
F		-1.372906804		-0.558274549		-1.850735701
F		-1.950804477		2.068252438		-1.884073586
F		-2.031245505		0.70177789		0.455991172
F		0.592349691		1.288758485		-0.295130053
F		-0.287593135		2.740087617		1.9830911
F		0.353398094		-0.35939685		2.057679994
F		-4.277082326		0.212872395		-0.580831587
F		0.749373757		1.235506243		-3.233697706
