12
-186.56215295
Al		-0.365930869		1.042109897		-1.819641309
Al		-0.447549364		1.072799769		1.28169354
Al		-3.019168528		0.455066451		-1.858746731
F		-3.531277313		0.312754801		-3.599689835
F		-1.37246646		-0.557878369		-1.851602569
F		-1.951375901		2.068462802		-1.883218286
F		-2.030936513		0.70034815		0.45601844
F		0.591932591		1.290688453		-0.295166861
F		-0.286134279		2.740186285		1.982295544
F		0.35202239		-0.359880294		2.05848289
F		-4.27711705		0.213033079		-0.580834651
F		0.749615925		1.234385683		-3.233676338
