12
-186.56215295
Al		-0.366196771		1.043340251		-1.819664775
Al		-0.44750365		1.072588245		1.281697578
Al		-3.019063378		0.454579917		-1.858737455
F		-3.531217349		0.312477331		-3.599684543
F		-1.371805944		-0.557284099		-1.852902871
F		-1.952233037		2.068778348		-1.881935336
F		-2.030473025		0.69820354		0.456059342
F		0.591306941		1.293583405		-0.295222073
F		-0.283945995		2.740334287		1.98110221
F		0.349958834		-0.36060546		2.059687234
F		-4.277169136		0.213274105		-0.580839247
F		0.749979177		1.232704843		-3.233644286
