12
-186.56215295
Al		-0.366374039		1.044160487		-1.819680419
Al		-0.447473174		1.072447229		1.28170027
Al		-3.018993278		0.454255561		-1.858731271
F		-3.531177373		0.312292351		-3.599681015
F		-1.3713656		-0.556887919		-1.853769739
F		-1.952804461		2.068988712		-1.881080036
F		-2.030164033		0.6967738		0.45608661
F		0.590889841		1.295513373		-0.295258881
F		-0.282487139		2.740432955		1.980306654
F		0.34858313		-0.361088904		2.06049013
F		-4.27720386		0.213434789		-0.580842311
F		0.750221345		1.231584283		-3.233622918
