12
-186.56215295
Al		-0.366595624		1.045185782		-1.819699974
Al		-0.447435079		1.072270959		1.281703635
Al		-3.018905653		0.453850116		-1.858723541
F		-3.531127403		0.312061126		-3.599676605
F		-1.37081517		-0.556392694		-1.854853324
F		-1.953518741		2.069251667		-1.880010911
F		-2.029777793		0.694986625		0.456120695
F		0.590368466		1.297925833		-0.295304891
F		-0.280663569		2.74055629		1.979312209
F		0.3468635		-0.361693209		2.06149375
F		-4.277247265		0.213635644		-0.580846141
F		0.750524055		1.230183583		-3.233596208
