12
-186.56215295
Al		-0.366728575		1.045800959		-1.819711707
Al		-0.447412222		1.072165197		1.281705654
Al		-3.018853078		0.453606849		-1.858718903
F		-3.531097421		0.311922391		-3.599673959
F		-1.370484912		-0.556095559		-1.855503475
F		-1.953947309		2.06940944		-1.879369436
F		-2.029546049		0.69391432		0.456141146
F		0.590055641		1.299373309		-0.295332497
F		-0.279569427		2.740630291		1.978715542
F		0.345831722		-0.362055792		2.062095922
F		-4.277273308		0.213756157		-0.580848439
F		0.750705681		1.229343163		-3.233580182
