12
-186.56215295
Al		-0.366861526		1.046416136		-1.81972344
Al		-0.447389365		1.072059435		1.281707673
Al		-3.018800503		0.453363582		-1.858714265
F		-3.531067439		0.311783656		-3.599671313
F		-1.370154654		-0.555798424		-1.856153626
F		-1.954375877		2.069567213		-1.878727961
F		-2.029314305		0.692842015		0.456161597
F		0.589742816		1.300820785		-0.295360103
F		-0.278475285		2.740704292		1.978118875
F		0.344799944		-0.362418375		2.062698094
F		-4.277299351		0.21387667		-0.580850737
F		0.750887307		1.228502743		-3.233564156
