12
-186.56215295
Al		-0.36695016		1.046826254		-1.819731262
Al		-0.447374127		1.071988927		1.281709019
Al		-3.018765453		0.453201404		-1.858711173
F		-3.531047451		0.311691166		-3.599669549
F		-1.369934482		-0.555600334		-1.85658706
F		-1.954661589		2.069672395		-1.878300311
F		-2.029159809		0.692127145		0.456175231
F		0.589534266		1.301785769		-0.295378507
F		-0.277745857		2.740753626		1.977721097
F		0.344112092		-0.362660097		2.063099542
F		-4.277316713		0.213957012		-0.580852269
F		0.751008391		1.227942463		-3.233553472
