12
-186.56215295
Al		-0.367083111		1.047441431		-1.819742995
Al		-0.44735127		1.071883165		1.281711038
Al		-3.018712878		0.452958137		-1.858706535
F		-3.531017469		0.311552431		-3.599666903
F		-1.369604224		-0.555303199		-1.857237211
F		-1.955090157		2.069830168		-1.877658836
F		-2.028928065		0.69105484		0.456195682
F		0.589221441		1.303233245		-0.295406113
F		-0.276651715		2.740827627		1.97712443
F		0.343080314		-0.36302268		2.063701714
F		-4.277342756		0.214077525		-0.580854567
F		0.751190017		1.227102043		-3.233537446
