12
-186.56215295
Al		-0.364335457		1.034727773		-1.819500513
Al		-0.447823648		1.074068913		1.281669312
Al		-3.019799428		0.457985655		-1.858802387
F		-3.531637097		0.314419621		-3.599721587
F		-1.376429556		-0.561443989		-1.843800757
F		-1.946233085		2.066569526		-1.890915986
F		-2.033717441		0.71321581		0.455773028
F		0.595686491		1.273318741		-0.294835589
F		-0.299263983		2.739298273		1.989455548
F		0.364403726		-0.355529298		2.051256826
F		-4.276804534		0.211586923		-0.580807075
F		0.747436413		1.244470723		-3.23386865
