12
-186.56215295
Al		-0.367127428		1.04764649		-1.819746906
Al		-0.447343651		1.071847911		1.281711711
Al		-3.018695353		0.452877048		-1.858704989
F		-3.531007475		0.311506186		-3.599666021
F		-1.369494138		-0.555204154		-1.857453928
F		-1.955233013		2.069882759		-1.877445011
F		-2.028850817		0.690697405		0.456202499
F		0.589117166		1.303715737		-0.295415315
F		-0.276287001		2.740852294		1.976925541
F		0.342736388		-0.363143541		2.063902438
F		-4.277351437		0.214117696		-0.580855333
F		0.751250559		1.226821903		-3.233532104
