12
-186.56215295
Al		-0.36739333		1.048876844		-1.819770372
Al		-0.447297937		1.071636387		1.281715749
Al		-3.018590203		0.452390514		-1.858695713
F		-3.530947511		0.311228716		-3.599660729
F		-1.368833622		-0.554609884		-1.85875423
F		-1.956090149		2.070198305		-1.876162061
F		-2.028387329		0.688552795		0.456243401
F		0.588491516		1.306610689		-0.295470527
F		-0.274098717		2.741000296		1.975732207
F		0.340672832		-0.363868707		2.065106782
F		-4.277403523		0.214358722		-0.580859929
F		0.751613811		1.225141063		-3.233500052
