12
-186.56215295
Al		-0.367437647		1.049081903		-1.819774283
Al		-0.447290318		1.071601133		1.281716422
Al		-3.018572678		0.452309425		-1.858694167
F		-3.530937517		0.311182471		-3.599659847
F		-1.368723536		-0.554510839		-1.858970947
F		-1.956233005		2.070250896		-1.875948236
F		-2.028310081		0.68819536		0.456250218
F		0.588387241		1.307093181		-0.295479729
F		-0.273734003		2.741024963		1.975533318
F		0.340328906		-0.363989568		2.065307506
F		-4.277412204		0.214398893		-0.580860695
F		0.751674353		1.224860923		-3.23349471
