12
-186.56215295
Al		-0.367481964		1.049286962		-1.819778194
Al		-0.447282699		1.071565879		1.281717095
Al		-3.018555153		0.452228336		-1.858692621
F		-3.530927523		0.311136226		-3.599658965
F		-1.36861345		-0.554411794		-1.859187664
F		-1.956375861		2.070303487		-1.875734411
F		-2.028232833		0.687837925		0.456257035
F		0.588282966		1.307575673		-0.295488931
F		-0.273369289		2.74104963		1.975334429
F		0.33998498		-0.364110429		2.06550823
F		-4.277420885		0.214439064		-0.580861461
F		0.751734895		1.224580783		-3.233489368
