12
-186.56215295
Al		-0.367659232		1.050107198		-1.819793838
Al		-0.447252223		1.071424863		1.281719787
Al		-3.018485053		0.45190398		-1.858686437
F		-3.530887547		0.310951246		-3.599655437
F		-1.368173106		-0.554015614		-1.860054532
F		-1.956947285		2.070513851		-1.874879111
F		-2.027923841		0.686408185		0.456284303
F		0.587865866		1.309505641		-0.295525739
F		-0.271910433		2.741148298		1.974538873
F		0.338609276		-0.364593873		2.066311126
F		-4.277455609		0.214599748		-0.580864525
F		0.751977063		1.223460223		-3.233468
