12
-186.56215295
Al		-0.367747866		1.050517316		-1.81980166
Al		-0.447236985		1.071354355		1.281721133
Al		-3.018450003		0.451741802		-1.858683345
F		-3.530867559		0.310858756		-3.599653673
F		-1.367952934		-0.553817524		-1.860487966
F		-1.957232997		2.070619033		-1.874451461
F		-2.027769345		0.685693315		0.456297937
F		0.587657316		1.310470625		-0.295544143
F		-0.271181005		2.741197632		1.974141095
F		0.337921424		-0.364835595		2.066712574
F		-4.277472971		0.21468009		-0.580866057
F		0.752098147		1.222899943		-3.233457316
