12
-186.56215295
Al		-0.3678365		1.050927434		-1.819809482
Al		-0.447221747		1.071283847		1.281722479
Al		-3.018414953		0.451579624		-1.858680253
F		-3.530847571		0.310766266		-3.599651909
F		-1.367732762		-0.553619434		-1.8609214
F		-1.957518709		2.070724215		-1.874023811
F		-2.027614849		0.684978445		0.456311571
F		0.587448766		1.311435609		-0.295562547
F		-0.270451577		2.741246966		1.973743317
F		0.337233572		-0.365077317		2.067114022
F		-4.277490333		0.214760432		-0.580867589
F		0.752219231		1.222339663		-3.233446632
