12
-186.56215295
Al		-0.367880817		1.051132493		-1.819813393
Al		-0.447214128		1.071248593		1.281723152
Al		-3.018397428		0.451498535		-1.858678707
F		-3.530837577		0.310720021		-3.599651027
F		-1.367622676		-0.553520389		-1.861138117
F		-1.957661565		2.070776806		-1.873809986
F		-2.027537601		0.68462101		0.456318388
F		0.587344491		1.311918101		-0.295571749
F		-0.270086863		2.741271633		1.973544428
F		0.336889646		-0.365198178		2.067314746
F		-4.277499014		0.214800603		-0.580868355
F		0.752279773		1.222059523		-3.23344129
