12
-186.56215295
Al		-0.36827967		1.052978024		-1.819848592
Al		-0.447145557		1.070931307		1.281729209
Al		-3.018239703		0.450768734		-1.858664793
F		-3.530747631		0.310303816		-3.599643089
F		-1.366631902		-0.552628984		-1.86308857
F		-1.958947269		2.071250125		-1.871885561
F		-2.026842369		0.681404095		0.456379741
F		0.586406016		1.316260529		-0.295654567
F		-0.266804437		2.741493636		1.971754427
F		0.333794312		-0.366285927		2.069121262
F		-4.277577143		0.215162142		-0.580875249
F		0.752824651		1.219538263		-3.233393212
