12
-186.56215295
Al		-0.368368304		1.053388142		-1.819856414
Al		-0.447130319		1.070860799		1.281730555
Al		-3.018204653		0.450606556		-1.858661701
F		-3.530727643		0.310211326		-3.599641325
F		-1.36641173		-0.552430894		-1.863522004
F		-1.959232981		2.071355307		-1.871457911
F		-2.026687873		0.680689225		0.456393375
F		0.586197466		1.317225513		-0.295672971
F		-0.266075009		2.74154297		1.971356649
F		0.33310646		-0.366527649		2.06952271
F		-4.277594505		0.215242484		-0.580876781
F		0.752945735		1.218977983		-3.233382528
