12
-186.56215295
Al		-0.363980921		1.033087301		-1.819469225
Al		-0.4478846		1.074350945		1.281663928
Al		-3.019939628		0.458634367		-1.858814755
F		-3.531717049		0.314789581		-3.599728643
F		-1.377310244		-0.562236349		-1.842067021
F		-1.945090237		2.066148798		-1.892626586
F		-2.034335425		0.71607529		0.455718492
F		0.596520691		1.269458805		-0.294761973
F		-0.302181695		2.739100937		1.99104666
F		0.367155134		-0.35456241		2.049651034
F		-4.276735086		0.211265555		-0.580800947
F		0.746952077		1.246711843		-3.233911386
