12
-186.56215295
Al		-0.363360483		1.030216475		-1.819414471
Al		-0.447991266		1.074844501		1.281654506
Al		-3.020184978		0.459769613		-1.858836399
F		-3.531856965		0.315437011		-3.599740991
F		-1.378851448		-0.563622979		-1.839032983
F		-1.943090253		2.065412524		-1.895620136
F		-2.035416897		0.72107938		0.455623054
F		0.597980541		1.262703917		-0.294633145
F		-0.307287691		2.738755599		1.993831106
F		0.371970098		-0.352870356		2.046840898
F		-4.276613552		0.210703161		-0.580790223
F		0.746104489		1.250633803		-3.233986174
