12
-186.56215295
Al		-0.363271849		1.029806357		-1.819406649
Al		-0.448006504		1.074915009		1.28165316
Al		-3.020220028		0.459931791		-1.858839491
F		-3.531876953		0.315529501		-3.599742755
F		-1.37907162		-0.563821069		-1.838599549
F		-1.942804541		2.065307342		-1.896047786
F		-2.035571393		0.72179425		0.45560942
F		0.598189091		1.261738933		-0.294614741
F		-0.308017119		2.738706265		1.994228884
F		0.37265795		-0.352628634		2.04643945
F		-4.27659619		0.210622819		-0.580788691
F		0.745983405		1.251194083		-3.233996858
