12
-186.56215295
Al		-0.363183215		1.029396239		-1.819398827
Al		-0.448021742		1.074985517		1.281651814
Al		-3.020255078		0.460093969		-1.858842583
F		-3.531896941		0.315621991		-3.599744519
F		-1.379291792		-0.564019159		-1.838166115
F		-1.942518829		2.06520216		-1.896475436
F		-2.035725889		0.72250912		0.455595786
F		0.598397641		1.260773949		-0.294596337
F		-0.308746547		2.738656931		1.994626662
F		0.373345802		-0.352386912		2.046038002
F		-4.276578828		0.210542477		-0.580787159
F		0.745862321		1.251754363		-3.234007542
