12
-186.56215295
Al		-0.363050264		1.028781062		-1.819387094
Al		-0.448044599		1.075091279		1.281649795
Al		-3.020307653		0.460337236		-1.858847221
F		-3.531926923		0.315760726		-3.599747165
F		-1.37962205		-0.564316294		-1.837515964
F		-1.942090261		2.065044387		-1.897116911
F		-2.035957633		0.723581425		0.455575335
F		0.598710466		1.259326473		-0.294568731
F		-0.309840689		2.73858293		1.995223329
F		0.37437758		-0.352024329		2.04543583
F		-4.276552785		0.210421964		-0.580784861
F		0.745680695		1.252594783		-3.234023568
