12
-186.56215295
Al		-0.362695728		1.02714059		-1.819355806
Al		-0.448105551		1.075373311		1.281644411
Al		-3.020447853		0.460985948		-1.858859589
F		-3.532006875		0.316130686		-3.599754221
F		-1.380502738		-0.565108654		-1.835782228
F		-1.940947413		2.064623659		-1.898827511
F		-2.036575617		0.726440905		0.455520799
F		0.599544666		1.255466537		-0.294495115
F		-0.312758401		2.738385594		1.996814441
F		0.377128988		-0.351057441		2.043830038
F		-4.276483337		0.210100596		-0.580778733
F		0.745196359		1.254835903		-3.234066304
