12
-186.56215295
Al		-0.362607094		1.026730472		-1.819347984
Al		-0.448120789		1.075443819		1.281643065
Al		-3.020482903		0.461148126		-1.858862681
F		-3.532026863		0.316223176		-3.599755985
F		-1.38072291		-0.565306744		-1.835348794
F		-1.940661701		2.064518477		-1.899255161
F		-2.036730113		0.727155775		0.455507165
F		0.599753216		1.254501553		-0.294476711
F		-0.313487829		2.73833626		1.997212219
F		0.37781684		-0.350815719		2.04342859
F		-4.276465975		0.210020254		-0.580777201
F		0.745075275		1.255396183		-3.234076988
