12
-186.56215295
Al		-0.362562777		1.026525413		-1.819344073
Al		-0.448128408		1.075479073		1.281642392
Al		-3.020500428		0.461229215		-1.858864227
F		-3.532036857		0.316269421		-3.599756867
F		-1.380832996		-0.565405789		-1.835132077
F		-1.940518845		2.064465886		-1.899468986
F		-2.036807361		0.72751321		0.455500348
F		0.599857491		1.254019061		-0.294467509
F		-0.313852543		2.738311593		1.997411108
F		0.378160766		-0.350694858		2.043227866
F		-4.276457294		0.209980083		-0.580776435
F		0.745014733		1.255676323		-3.23408233
