12
-186.56215295
Al		-0.36251846		1.026320354		-1.819340162
Al		-0.448136027		1.075514327		1.281641719
Al		-3.020517953		0.461310304		-1.858865773
F		-3.532046851		0.316315666		-3.599757749
F		-1.380943082		-0.565504834		-1.83491536
F		-1.940375989		2.064413295		-1.899682811
F		-2.036884609		0.727870645		0.455493531
F		0.599961766		1.253536569		-0.294458307
F		-0.314217257		2.738286926		1.997609997
F		0.378504692		-0.350573997		2.043027142
F		-4.276448613		0.209939912		-0.580775669
F		0.744954191		1.255956463		-3.234087672
