12
-186.56215295
Al		-0.362474143		1.026115295		-1.819336251
Al		-0.448143646		1.075549581		1.281641046
Al		-3.020535478		0.461391393		-1.858867319
F		-3.532056845		0.316361911		-3.599758631
F		-1.381053168		-0.565603879		-1.834698643
F		-1.940233133		2.064360704		-1.899896636
F		-2.036961857		0.72822808		0.455486714
F		0.600066041		1.253054077		-0.294449105
F		-0.314581971		2.738262259		1.997808886
F		0.378848618		-0.350453136		2.042826418
F		-4.276439932		0.209899741		-0.580774903
F		0.744893649		1.256236603		-3.234093014
