12
-186.56215295
Al		-0.362341192		1.025500118		-1.819324518
Al		-0.448166503		1.075655343		1.281639027
Al		-3.020588053		0.46163466		-1.858871957
F		-3.532086827		0.316500646		-3.599761277
F		-1.381383426		-0.565901014		-1.834048492
F		-1.939804565		2.064202931		-1.900538111
F		-2.037193601		0.729300385		0.455466263
F		0.600378866		1.251606601		-0.294421499
F		-0.315676113		2.738188258		1.998405553
F		0.379880396		-0.350090553		2.042224246
F		-4.276413889		0.209779228		-0.580772605
F		0.744712023		1.257077023		-3.23410904
