12
-186.56215295
Al		-0.362208241		1.024884941		-1.819312785
Al		-0.44818936		1.075761105		1.281637008
Al		-3.020640628		0.461877927		-1.858876595
F		-3.532116809		0.316639381		-3.599763923
F		-1.381713684		-0.566198149		-1.833398341
F		-1.939375997		2.064045158		-1.901179586
F		-2.037425345		0.73037269		0.455445812
F		0.600691691		1.250159125		-0.294393893
F		-0.316770255		2.738114257		1.99900222
F		0.380912174		-0.34972797		2.041622074
F		-4.276387846		0.209658715		-0.580770307
F		0.744530397		1.257917443		-3.234125066
