12
-186.56215295
Al		-0.361765071		1.022834351		-1.819273675
Al		-0.44826555		1.076113645		1.281630278
Al		-3.020815878		0.462688817		-1.858892055
F		-3.532216749		0.317101831		-3.599772743
F		-1.382814544		-0.567188599		-1.831231171
F		-1.937947437		2.063519248		-1.903317836
F		-2.038197825		0.73394704		0.455377642
F		0.601734441		1.245334205		-0.294301873
F		-0.320417395		2.737867587		2.00099111
F		0.384351434		-0.34851936		2.039614834
F		-4.276301036		0.209257005		-0.580762647
F		0.743924977		1.260718843		-3.234178486
