12
-186.56215295
Al		-0.361676437		1.022424233		-1.819265853
Al		-0.448280788		1.076184153		1.281628932
Al		-3.020850928		0.462850995		-1.858895147
F		-3.532236737		0.317194321		-3.599774507
F		-1.383034716		-0.567386689		-1.830797737
F		-1.937661725		2.063414066		-1.903745486
F		-2.038352321		0.73466191		0.455364008
F		0.601942991		1.244369221		-0.294283469
F		-0.321146823		2.737818253		2.001388888
F		0.385039286		-0.348277638		2.039213386
F		-4.276283674		0.209176663		-0.580761115
F		0.743803893		1.261279123		-3.23418917
