12
-186.56215295
Al		-0.36163212		1.022219174		-1.819261942
Al		-0.448288407		1.076219407		1.281628259
Al		-3.020868453		0.462932084		-1.858896693
F		-3.532246731		0.317240566		-3.599775389
F		-1.383144802		-0.567485734		-1.83058102
F		-1.937518869		2.063361475		-1.903959311
F		-2.038429569		0.735019345		0.455357191
F		0.602047266		1.243886729		-0.294274267
F		-0.321511537		2.737793586		2.001587777
F		0.385383212		-0.348156777		2.039012662
F		-4.276274993		0.209136492		-0.580760349
F		0.743743351		1.261559263		-3.234194512
