12
-186.56215295
Al		-0.361454852		1.021398938		-1.819246298
Al		-0.448318883		1.076360423		1.281625567
Al		-3.020938553		0.46325644		-1.858902877
F		-3.532286707		0.317425546		-3.599778917
F		-1.383585146		-0.567881914		-1.829714152
F		-1.936947445		2.063151111		-1.904814611
F		-2.038738561		0.736449085		0.455329923
F		0.602464366		1.241956761		-0.294237459
F		-0.322970393		2.737694918		2.002383333
F		0.386758916		-0.347673333		2.038209766
F		-4.276240269		0.208975808		-0.580757285
F		0.743501183		1.262679823		-3.23421588
