12
-186.56215295
Al		-0.361410535		1.021193879		-1.819242387
Al		-0.448326502		1.076395677		1.281624894
Al		-3.020956078		0.463337529		-1.858904423
F		-3.532296701		0.317471791		-3.599779799
F		-1.383695232		-0.567980959		-1.829497435
F		-1.936804589		2.06309852		-1.905028436
F		-2.038815809		0.73680652		0.455323106
F		0.602568641		1.241474269		-0.294228257
F		-0.323335107		2.737670251		2.002582222
F		0.387102842		-0.347552472		2.038009042
F		-4.276231588		0.208935637		-0.580756519
F		0.743440641		1.262959963		-3.234221222
