12
-186.56215295
Al		-0.363759336		1.032062006		-1.81944967
Al		-0.447922695		1.074527215		1.281660563
Al		-3.020027253		0.459039812		-1.858822485
F		-3.531767019		0.315020806		-3.599733053
F		-1.377860674		-0.562731574		-1.840983436
F		-1.944375957		2.065885843		-1.893695711
F		-2.034721665		0.717862465		0.455684407
F		0.597042066		1.267046345		-0.294715963
F		-0.304005265		2.738977602		1.992041105
F		0.368874764		-0.353958105		2.048647414
F		-4.276691681		0.2110647		-0.580797117
F		0.746649367		1.248112543		-3.233938096
