12
-186.56215295
Al		-0.361277584		1.020578702		-1.819230654
Al		-0.448349359		1.076501439		1.281622875
Al		-3.021008653		0.463580796		-1.858909061
F		-3.532326683		0.317610526		-3.599782445
F		-1.38402549		-0.568278094		-1.828847284
F		-1.936376021		2.062940747		-1.905669911
F		-2.039047553		0.737878825		0.455302655
F		0.602881466		1.240026793		-0.294200651
F		-0.324429249		2.73759625		2.003178889
F		0.38813462		-0.347189889		2.03740687
F		-4.276205545		0.208815124		-0.580754221
F		0.743259015		1.263800383		-3.234237248
