12
-186.56215295
Al		-0.361233267		1.020373643		-1.819226743
Al		-0.448356978		1.076536693		1.281622202
Al		-3.021026178		0.463661885		-1.858910607
F		-3.532336677		0.317656771		-3.599783327
F		-1.384135576		-0.568377139		-1.828630567
F		-1.936233165		2.062888156		-1.905883736
F		-2.039124801		0.73823626		0.455295838
F		0.602985741		1.239544301		-0.294191449
F		-0.324793963		2.737571583		2.003377778
F		0.388478546		-0.347069028		2.037206146
F		-4.276196864		0.208774953		-0.580753455
F		0.743198473		1.264080523		-3.23424259
