12
-186.56215295
Al		-0.36118895		1.020168584		-1.819222832
Al		-0.448364597		1.076571947		1.281621529
Al		-3.021043703		0.463742974		-1.858912153
F		-3.532346671		0.317703016		-3.599784209
F		-1.384245662		-0.568476184		-1.82841385
F		-1.936090309		2.062835565		-1.906097561
F		-2.039202049		0.738593695		0.455289021
F		0.603090016		1.239061809		-0.294182247
F		-0.325158677		2.737546916		2.003576667
F		0.388822472		-0.346948167		2.037005422
F		-4.276188183		0.208734782		-0.580752689
F		0.743137931		1.264360663		-3.234247932
