12
-186.56215295
Al		-0.361011682		1.019348348		-1.819207188
Al		-0.448395073		1.076712963		1.281618837
Al		-3.021113803		0.46406733		-1.858918337
F		-3.532386647		0.317887996		-3.599787737
F		-1.384686006		-0.568872364		-1.827546982
F		-1.935518885		2.062625201		-1.906952861
F		-2.039511041		0.740023435		0.455261753
F		0.603507116		1.237131841		-0.294145439
F		-0.326617533		2.737448248		2.004372223
F		0.390198176		-0.346464723		2.036202526
F		-4.276153459		0.208574098		-0.580749625
F		0.742895763		1.265481223		-3.2342693
