12
-186.56215295
Al		-0.360923048		1.01893823		-1.819199366
Al		-0.448410311		1.076783471		1.281617491
Al		-3.021148853		0.464229508		-1.858921429
F		-3.532406635		0.317980486		-3.599789501
F		-1.384906178		-0.569070454		-1.827113548
F		-1.935233173		2.062520019		-1.907380511
F		-2.039665537		0.740738305		0.455248119
F		0.603715666		1.236166857		-0.294127035
F		-0.327346961		2.737398914		2.004770001
F		0.390886028		-0.346223001		2.035801078
F		-4.276136097		0.208493756		-0.580748093
F		0.742774679		1.266041503		-3.234279984
