12
-186.56215295
Al		-0.360790097		1.018323053		-1.819187633
Al		-0.448433168		1.076889233		1.281615472
Al		-3.021201428		0.464472775		-1.858926067
F		-3.532436617		0.318119221		-3.599792147
F		-1.385236436		-0.569367589		-1.826463397
F		-1.934804605		2.062362246		-1.908021986
F		-2.039897281		0.74181061		0.455227668
F		0.604028491		1.234719381		-0.294099429
F		-0.328441103		2.737324913		2.005366668
F		0.391917806		-0.345860418		2.035198906
F		-4.276110054		0.208373243		-0.580745795
F		0.742593053		1.266881923		-3.23429601
