12
-186.56215295
Al		-0.36074578		1.018117994		-1.819183722
Al		-0.448440787		1.076924487		1.281614799
Al		-3.021218953		0.464553864		-1.858927613
F		-3.532446611		0.318165466		-3.599793029
F		-1.385346522		-0.569466634		-1.82624668
F		-1.934661749		2.062309655		-1.908235811
F		-2.039974529		0.742168045		0.455220851
F		0.604132766		1.234236889		-0.294090227
F		-0.328805817		2.737300246		2.005565557
F		0.392261732		-0.345739557		2.034998182
F		-4.276101373		0.208333072		-0.580745029
F		0.742532511		1.267162063		-3.234301352
