12
-186.56215295
Al		-0.360701463		1.017912935		-1.819179811
Al		-0.448448406		1.076959741		1.281614126
Al		-3.021236478		0.464634953		-1.858929159
F		-3.532456605		0.318211711		-3.599793911
F		-1.385456608		-0.569565679		-1.826029963
F		-1.934518893		2.062257064		-1.908449636
F		-2.040051777		0.74252548		0.455214034
F		0.604237041		1.233754397		-0.294081025
F		-0.329170531		2.737275579		2.005764446
F		0.392605658		-0.345618696		2.034797458
F		-4.276092692		0.208292901		-0.580744263
F		0.742471969		1.267442203		-3.234306694
