12
-186.56215295
Al		-0.360657146		1.017707876		-1.8191759
Al		-0.448456025		1.076994995		1.281613453
Al		-3.021254003		0.464716042		-1.858930705
F		-3.532466599		0.318257956		-3.599794793
F		-1.385566694		-0.569664724		-1.825813246
F		-1.934376037		2.062204473		-1.908663461
F		-2.040129025		0.742882915		0.455207217
F		0.604341316		1.233271905		-0.294071823
F		-0.329535245		2.737250912		2.005963335
F		0.392949584		-0.345497835		2.034596734
F		-4.276084011		0.20825273		-0.580743497
F		0.742411427		1.267722343		-3.234312036
