12
-186.56215295
Al		-0.360524195		1.017092699		-1.819164167
Al		-0.448478882		1.077100757		1.281611434
Al		-3.021306578		0.464959309		-1.858935343
F		-3.532496581		0.318396691		-3.599797439
F		-1.385896952		-0.569961859		-1.825163095
F		-1.933947469		2.0620467		-1.909304936
F		-2.040360769		0.74395522		0.455186766
F		0.604654141		1.231824429		-0.294044217
F		-0.330629387		2.737176911		2.006560002
F		0.393981362		-0.345135252		2.033994562
F		-4.276057968		0.208132217		-0.580741199
F		0.742229801		1.268562763		-3.234328062
