12
-186.56215295
Al		-0.360391244		1.016477522		-1.819152434
Al		-0.448501739		1.077206519		1.281609415
Al		-3.021359153		0.465202576		-1.858939981
F		-3.532526563		0.318535426		-3.599800085
F		-1.38622721		-0.570258994		-1.824512944
F		-1.933518901		2.061888927		-1.909946411
F		-2.040592513		0.745027525		0.455166315
F		0.604966966		1.230376953		-0.294016611
F		-0.331723529		2.73710291		2.007156669
F		0.39501314		-0.344772669		2.03339239
F		-4.276031925		0.208011704		-0.580738901
F		0.742048175		1.269403183		-3.234344088
