12
-186.56215295
Al		-0.363626385		1.031446829		-1.819437937
Al		-0.447945552		1.074632977		1.281658544
Al		-3.020079828		0.459283079		-1.858827123
F		-3.531797001		0.315159541		-3.599735699
F		-1.378190932		-0.563028709		-1.840333285
F		-1.943947389		2.06572807		-1.894337186
F		-2.034953409		0.71893477		0.455663956
F		0.597354891		1.265598869		-0.294688357
F		-0.305099407		2.738903601		1.992637772
F		0.369906542		-0.353595522		2.048045242
F		-4.276665638		0.210944187		-0.580794819
F		0.746467741		1.248952963		-3.233954122
