12
-186.56215295
Al		-0.360036708		1.01483705		-1.819121146
Al		-0.448562691		1.077488551		1.281604031
Al		-3.021499353		0.465851288		-1.858952349
F		-3.532606515		0.318905386		-3.599807141
F		-1.387107898		-0.571051354		-1.822779208
F		-1.932376053		2.061468199		-1.911657011
F		-2.041210497		0.747887005		0.455111779
F		0.605801166		1.226517017		-0.293942995
F		-0.334641241		2.736905574		2.008747781
F		0.397764548		-0.343805781		2.031786598
F		-4.275962477		0.207690336		-0.580732773
F		0.741563839		1.271644303		-3.234386824
