12
-186.56215295
Al		-0.359992391		1.014631991		-1.819117235
Al		-0.44857031		1.077523805		1.281603358
Al		-3.021516878		0.465932377		-1.858953895
F		-3.532616509		0.318951631		-3.599808023
F		-1.387217984		-0.571150399		-1.822562491
F		-1.932233197		2.061415608		-1.911870836
F		-2.041287745		0.74824444		0.455104962
F		0.605905441		1.226034525		-0.293933793
F		-0.335005955		2.736880907		2.00894667
F		0.398108474		-0.34368492		2.031585874
F		-4.275953796		0.207650165		-0.580732007
F		0.741503297		1.271924443		-3.234392166
