12
-186.56215295
Al		-0.359903757		1.014221873		-1.819109413
Al		-0.448585548		1.077594313		1.281602012
Al		-3.021551928		0.466094555		-1.858956987
F		-3.532636497		0.319044121		-3.599809787
F		-1.387438156		-0.571348489		-1.822129057
F		-1.931947485		2.061310426		-1.912298486
F		-2.041442241		0.74895931		0.455091328
F		0.606113991		1.225069541		-0.293915389
F		-0.335735383		2.736831573		2.009344448
F		0.398796326		-0.343443198		2.031184426
F		-4.275936434		0.207569823		-0.580730475
F		0.741382213		1.272484723		-3.23440285
