12
-186.56215295
Al		-0.359815123		1.013811755		-1.819101591
Al		-0.448600786		1.077664821		1.281600666
Al		-3.021586978		0.466256733		-1.858960079
F		-3.532656485		0.319136611		-3.599811551
F		-1.387658328		-0.571546579		-1.821695623
F		-1.931661773		2.061205244		-1.912726136
F		-2.041596737		0.74967418		0.455077694
F		0.606322541		1.224104557		-0.293896985
F		-0.336464811		2.736782239		2.009742226
F		0.399484178		-0.343201476		2.030782978
F		-4.275919072		0.207489481		-0.580728943
F		0.741261129		1.273045003		-3.234413534
