12
-186.56215295
Al		-0.359726489		1.013401637		-1.819093769
Al		-0.448616024		1.077735329		1.28159932
Al		-3.021622028		0.466418911		-1.858963171
F		-3.532676473		0.319229101		-3.599813315
F		-1.3878785		-0.571744669		-1.821262189
F		-1.931376061		2.061100062		-1.913153786
F		-2.041751233		0.75038905		0.45506406
F		0.606531091		1.223139573		-0.293878581
F		-0.337194239		2.736732905		2.010140004
F		0.40017203		-0.342959754		2.03038153
F		-4.27590171		0.207409139		-0.580727411
F		0.741140045		1.273605283		-3.234424218
