12
-186.56215295
Al		-0.359682172		1.013196578		-1.819089858
Al		-0.448623643		1.077770583		1.281598647
Al		-3.021639553		0.4665		-1.858964717
F		-3.532686467		0.319275346		-3.599814197
F		-1.387988586		-0.571843714		-1.821045472
F		-1.931233205		2.061047471		-1.913367611
F		-2.041828481		0.750746485		0.455057243
F		0.606635366		1.222657081		-0.293869379
F		-0.337558953		2.736708238		2.010338893
F		0.400515956		-0.342838893		2.030180806
F		-4.275893029		0.207368968		-0.580726645
F		0.741079503		1.273885423		-3.23442956
