      12
SCF Done            -170.53845202
Al            0.183356795        -0.755949478         1.790753717
Al            2.415148963        -1.632467054        -0.429355090
Al           -0.792580182        -1.831916940        -1.132725736
F             3.499193111        -0.265532393        -0.879320803
F            -1.762610451        -0.550565489        -1.970241821
F             2.880194987        -3.413389677        -0.519282992
F            -1.046383573        -3.626092785        -1.333374669
F             1.830067996        -1.429729732         1.286238200
F             0.928770164        -1.386276882        -1.483128865
F            -0.101471449        -1.436856641         3.430722681
F             0.209895979         1.045026766         1.367147072
F            -1.001371869        -1.583109321         0.699199612
