12
Properties=species:S:1:pos:R:3:forces:R:3 energy=-186.28798046 pbc="F F F"
Al    -1.685271761    2.5760432200000003    -1.213119091    0.028569    0.030079    0.031611
Al    -0.352733655    0.040607906    -2.533663374    0.342799    0.076127    -0.367928
Al    -2.370748376    -0.369987618    -0.319277537    -0.335914    -0.061968    0.376829
F    -0.733655241    3.715469036    -0.134616857    0.016336    0.02494    0.019512
F    -3.0031188469999996    3.1326038929999998    -2.310901892    0.016745    -0.044885    0.006937
F    -1.3694290800000002    -0.971998427    -1.583169161    0.006678    0.754606    0.146006
F    -2.371721462    1.359205183    -0.20137923800000002    0.181018    -0.117925    -0.295127
F    -3.485943063    -1.538538232    0.855487653    -0.215291    -0.213655    0.228618
F    0.885269198    -0.6491487410000001    -3.941082004    0.238622    -0.1213    -0.269465
F    -0.550979425    1.7296622140000002    -2.199295631    -0.247282    -0.205069    0.17485
F    -2.4621841570000003    0.44701985099999997    -2.315902328    0.019494    -0.04547    0.009335
F    -0.333871468    0.090906439    -0.442358108    -0.051774    -0.075478    -0.061178
