      12
SCF Done            -186.28798046
Al           -1.699202761         2.559918220        -1.228804091
Al           -0.516311655         0.004645906        -2.363242374
Al           -2.215554376        -0.341090618        -0.498648537
F            -0.755810241         3.687968036        -0.159905857
F            -3.015421847         3.172594893        -2.314697892
F            -1.376777080        -1.609941427        -1.708154161
F            -2.511277462         1.440528183         0.029177762
F            -3.268293063        -1.323399232         0.624762653
F             0.644577198        -0.527266741        -3.668864004
F            -0.355639425         1.879125214        -2.336222631
F            -2.452521157         0.470575851        -2.302728328
F            -0.307880468         0.152631439        -0.407227108
