12
Properties=species:S:1:pos:R:3:forces:R:3 energy=-185.25505417 pbc="F F F"
Al    -1.707421261    2.60415622    -1.228090091    -0.101391    -0.292814    -0.146688
Al    -0.46708315499999997    0.0072524059999999994    -2.430396374    -2.124253    -0.152028    2.252075
Al    -2.276277376    -0.360856118    -0.44515303700000003    1.996382    0.68638    -2.269529
F    -0.726038741    3.7155470360000002    -0.127660857    -0.065312    -0.10022    -0.078103
F    -3.045281847    3.182015393    -2.340162392    -0.069466    0.171865    -0.031439
F    -1.37603208    -1.330452427    -1.655651161    -0.015204    -3.184512    -0.604335
F    -2.458302962    1.413156683    -0.038648238    -0.794491    0.448137    1.283644
F    -3.3683785630000003    -1.4053002319999999    0.7330976530000001    0.898247    0.84297    -0.956314
F    0.754359198    -0.566467741    -3.790818504    -0.989218    0.458938    1.114818
F    -0.411176925    1.829673714    -2.284977631    1.086499    0.830852    -0.780382
F    -2.256194157    0.36650635099999995    -2.143107828    0.091675    0.06147    0.09494
F    -0.488505968    0.10586743900000001    -0.580504608    0.086531    0.228956    0.121312
