      12
SCF Done            -162.50291568
Al           -1.706390189         2.557134285        -1.235870006
Al           -0.591550170        -0.016092596        -2.284177356
Al           -2.142747386        -0.331707112        -0.582035049
F            -0.763921680         3.676741111        -0.169379773
F            -3.024338770         3.191080466        -2.319396319
F            -1.379299088        -1.935229437        -1.770768154
F            -2.584814880         1.486192710         0.149546785
F            -3.163241730        -1.221816146         0.512960564
F             0.528383090        -0.470699660        -3.537891600
F            -0.254311893         1.960368722        -2.407734522
F            -2.464376557         0.489557351        -2.310012828
F            -0.281659963         0.183470380        -0.377613588
