12
Properties=species:S:1:pos:R:3:forces:R:3 energy=-186.45326639 pbc="F F F"
Al    -0.18033833800000001    0.90618846    -2.067221136    0.23401    -0.206962    -0.157165
Al    -0.615895014    1.0541592530000001    1.109837936    0.021291    -0.250204    -0.3608
Al    -2.9201047190000002    0.593215489    -1.463177142    -0.027743    0.083271    0.345496
F    -3.464492261    0.632736608    -3.302441408    -0.14655    0.035643    -0.429198
F    -1.369658957    -0.5985493009999999    -1.875567745    0.168795    -0.182076    -0.068305
F    -1.6780563869999998    2.113389603    -1.707017583    -0.169728    0.293018    0.003087
F    -2.221904125    0.41202143900000004    0.519449124    -0.493885    -0.271812    -0.24589
F    0.586420327    0.797570243    -0.363415411    0.038077    -0.016947    -0.037927
F    -0.582578475    2.927271497    1.367819747    -0.094345    1.195847    0.255356
F    0.32202641499999995    -0.094167158    2.296841245    0.579088    -0.653075    0.652568
F    -4.433984592    0.36470637    -0.44365906499999996    -0.124572    -0.048303    0.076561
F    0.947890627    1.106678437    -3.4109617290000003    0.015562    0.021601    -0.033783
