12
Properties=species:S:1:pos:R:3:forces:R:3 energy=-185.77216688 pbc="F F F"
Al    0.388565072    -2.304282311    -2.055182961    0.007224    0.005828    -0.003607
Al    1.97958453    -0.555017256    -0.684888924    -0.031916    0.005423    0.059484
Al    -0.38380360599999996    0.29476560300000004    -1.6962585829999999    0.037025    0.01515    -0.047406
F    3.542174088    -0.11894901599999999    0.112760077    -0.010067    -0.002668    0.021805
F    -0.157415074    -3.964865593    -2.527697936    0.001003    0.00026    -0.002249
F    2.273363838    -2.003114876    -2.187649189    -0.012012    0.017378    -0.037301
F    1.455987495    0.18670393899999999    -2.45485362    -0.013979    -0.004816    -0.006807
F    -1.567050122    1.607856631    -2.0705188110000003    0.008953    0.002162    -0.019647
F    -0.888293486    -1.246864852    -0.823555869    0.012925    -0.005396    0.045004
F    -0.345109274    -1.055294409    -3.2735489810000002    -0.041395    -0.006794    -0.004109
F    0.670357096    0.8659933980000001    -0.012986501999999997    0.012094    -0.005516    -0.00085
F    0.9300521340000001    -1.94555011    -0.072217973    0.030145    -0.021008    -0.004317
