12
Properties=species:S:1:pos:R:3:forces:R:3 energy=-178.59816918 pbc="F F F"
Al    -2.038912261    2.2219105199999998    -0.725560191    -7.753843    -18.671052    14.12633
Al    -0.6548654549999999    -0.523138894    -2.3211581740000002    -2.580393    -3.288394    2.265749
Al    -2.446075276    -0.006982317999999987    -0.26252633700000005    -0.62566    4.662035    0.117302
F    -0.6010632410000001    3.8399137359999997    -0.11733075700000001    1.353886    1.320747    -0.00886
F    -3.1662049469999998    3.323920793    -2.604622892    -0.264965    0.797068    -1.666648
F    -1.2274082800000001    -1.423074527    -1.831789061    0.872926    0.51371    -0.737417
F    -2.398014762    1.169321183    -0.081530938    5.679286    12.981224    -10.920916
F    -3.124147163    -1.180915132    0.475730153    -0.036642    -0.071902    0.12102
F    0.5780766979999999    -0.47893314100000006    -3.590006204    0.122033    0.922104    0.000577
F    -0.042250225    2.070014014    -2.5710048309999998    1.590342    1.29537    -1.238115
F    -2.408499857    0.481778451    -2.429627728    0.5824    -0.352401    -1.1999
F    -0.16491916799999998    0.174365439    -0.424881508    1.060631    -0.108507    -0.859123
