12
Properties=species:S:1:pos:R:3:forces:R:3 energy=-185.19221179 pbc="F F F"
Al    1.29982378    0.021989317000000008    2.4529356730000003    2.054837    -1.885926    -2.137688
Al    1.2714575000000001    1.1667319    -0.08500780000000001    -1.617387    0.691725    0.657776
Al    -0.313300362    0.81442525    -2.347049173    2.724326    -2.214818    -0.145478
F    -1.778603372    -0.540206553    -2.201546706    -2.038095    0.012005    0.562518
F    2.0104431529999998    -0.23005355300000002    0.684022752    0.099512    0.089767    -0.854761
F    0.145471239    1.89348469    -3.958485133    -0.530657    1.802041    -0.755255
F    -0.43541541    1.9957388530000002    -0.770721349    -0.44563    0.128733    -0.491413
F    2.684427757    2.410916012    -0.354460543    0.985521    0.170415    -0.303068
F    1.274771639    0.131339905    -1.505038254    0.592416    -0.152369    0.6119
F    0.38762591700000004    1.591419529    1.678328439    -0.055133    -0.063092    0.67053
F    2.722649069    0.627461476    3.710132637    0.195067    1.445547    1.404201
F    -0.092796425    -1.368350452    2.814711971    -1.964778    -0.024028    0.780737
