      12
SCF Done            -185.19221179
Al            1.511041780        -0.217445683         2.323095673
Al            1.088994500         1.408258900         0.016185200
Al           -0.090688362         0.569395250        -2.442989173
F            -1.809181372        -0.208221553        -2.145462706
F             2.081382153        -0.312888553         0.515268752
F            -0.080558761         1.972442690        -3.728955133
F            -0.443815410         1.875082853        -0.990398349
F             2.653781757         2.344082012        -0.355193543
F             1.423071639         0.010500905        -1.443586254
F             0.498650917         1.412100529         1.813994439
F             2.413773069         0.747116476         3.693151637
F            -0.118069425        -1.038972452         2.886586971
