12
Properties=species:S:1:pos:R:3:forces:R:3 energy=-187.24475565 pbc="F F F"
Al    0.212398193    -0.6010771580000001    1.720421739    0.0    -0.0    -0.0
Al    2.4227873649999996    -1.850204872    -0.6294984969999999    -0.0    1e-06    0.0
Al    -0.856564981    -1.767541758    -0.866090143    0.0    1e-06    0.0
F    3.7113357070000004    -0.7536747930000001    -1.32381018    0.0    -0.0    0.0
F    -1.675987854    -0.30213388799999996    -1.6180605970000002    -0.0    -0.0    0.0
F    3.0610983949999997    -3.560205694    -0.733084643    -0.0    1e-06    0.0
F    -0.984384566    -3.608103202    -0.74552072    -0.0    1e-06    0.0
F    1.719106997    -1.443590393    1.045829402    -0.0    -0.0    -0.0
F    0.850652164    -1.508250882    -1.486528665    0.0    0.0    -0.0
F    -0.220638248    -1.176593563    3.395258289    -0.0    1e-06    0.0
F    0.18666057100000003    1.132335299    1.166596136    0.0    -0.0    -0.0
F    -1.179048868    -1.428150383    0.901855814    0.0    -0.0    -0.0
