12
-185.77729729
Al		0.093386972		-2.373977611		-1.432399861
Al		1.85255913		-0.586884256		-0.412708624
Al		-0.517323206		0.263172903		-1.407304083
F		3.639127288		-0.176489616		-0.061957023
F		-0.152821974		-4.028623893		-2.259932636
F		2.269763638		-1.864834276		-2.486080589
F		1.656904495		0.781594339		-2.46089642
F		-1.469226422		1.655834531		-2.205837911
F		-0.947955486		-1.228215852		-1.170335769
F		-0.108455974		-1.011786509		-3.484175181
F		0.579365996		0.323346998		-0.285034002
F		1.109588134		-1.96624061		-0.306822173
