12
-185.77729729
Al		0.403028372		-2.295884711		-2.103459561
Al		2.16220053		-0.508791356		-1.083768324
Al		-0.207681806		0.341265803		-2.078363783
F		3.615310288		-0.182495716		-0.010338223
F		-0.176638974		-4.034629993		-2.208313836
F		1.982909038		-1.774664576		-2.149228989
F		1.440292195		0.568448339		-2.12693142
F		-1.493043422		1.649828431		-2.154219111
F		-1.278840086		-1.307667052		-0.873539569
F		-0.122735974		-1.019387209		-3.032928881
F		0.450815396		0.449441098		0.129041798
F		1.051278134		-2.14346051		0.104367027
