12
-185.77729729
Al		0.111601172		-2.369383911		-1.471873961
Al		1.87077333		-0.582290556		-0.452182724
Al		-0.499109006		0.267766603		-1.446778183
F		3.637726288		-0.176842916		-0.058920623
F		-0.154222974		-4.028977193		-2.256896236
F		2.252889838		-1.859530176		-2.466265789
F		1.644162595		0.769056339		-2.44125142
F		-1.470627422		1.655481231		-2.202801511
F		-0.967419286		-1.232889452		-1.152877169
F		-0.109295974		-1.012233609		-3.457631281
F		0.571804196		0.330764298		-0.260676602
F		1.106158134		-1.97666531		-0.282634573
