12
-185.77729729
Al		0.439456772		-2.286697311		-2.182407761
Al		2.19862893		-0.499603956		-1.162716524
Al		-0.171253406		0.350453203		-2.157311983
F		3.612508288		-0.183202316		-0.004265423
F		-0.179440974		-4.035336593		-2.202241036
F		1.949161438		-1.764056376		-2.109599389
F		1.414808395		0.543372339		-2.08764142
F		-1.495845422		1.649121831		-2.148146311
F		-1.317767686		-1.317014252		-0.838622369
F		-0.124415974		-1.020281409		-2.979841081
F		0.435691796		0.464275698		0.177756598
F		1.044418134		-2.16430991		0.152742227
