12
-185.77729729
Al		0.093386972		-2.373977611		-1.432399861
Al		1.85255913		-0.586884256		-0.412708624
Al		-0.517323206		0.263172903		-1.407304083
F		3.639127288		-0.176489616		-0.061957023
F		-0.152821974		-4.028623893		-2.259932636
F		2.269763638		-1.864834276		-2.486080589
F		1.656904495		0.781594339		-2.46089642
F		-1.469226422		1.655834531		-2.205837911
F		-0.947955486		-1.228215852		-1.170335769
F		-0.108455974		-1.011786509		-3.484175181
F		0.579365996		0.323346998		-0.285034002
F		1.109588134		-1.96624061		-0.306822173
12
-185.77729729
Al		0.111601172		-2.369383911		-1.471873961
Al		1.87077333		-0.582290556		-0.452182724
Al		-0.499109006		0.267766603		-1.446778183
F		3.637726288		-0.176842916		-0.058920623
F		-0.154222974		-4.028977193		-2.256896236
F		2.252889838		-1.859530176		-2.466265789
F		1.644162595		0.769056339		-2.44125142
F		-1.470627422		1.655481231		-2.202801511
F		-0.967419286		-1.232889452		-1.152877169
F		-0.109295974		-1.012233609		-3.457631281
F		0.571804196		0.330764298		-0.260676602
F		1.106158134		-1.97666531		-0.282634573
12
-185.77729729
Al		0.129815372		-2.364790211		-1.511348061
Al		1.88898753		-0.577696856		-0.491656824
Al		-0.480894806		0.272360303		-1.486252283
F		3.636325288		-0.177196216		-0.055884223
F		-0.155623974		-4.029330493		-2.253859836
F		2.236016038		-1.854226076		-2.446450989
F		1.631420695		0.756518339		-2.42160642
F		-1.472028422		1.655127931		-2.199765111
F		-0.986883086		-1.237563052		-1.135418569
F		-0.110135974		-1.012680709		-3.431087381
F		0.564242396		0.338181598		-0.236319202
F		1.102728134		-1.98709001		-0.258446973
12
-185.77729729
Al		0.148029572		-2.360196511		-1.550822161
Al		1.90720173		-0.573103156		-0.531130924
Al		-0.462680606		0.276954003		-1.525726383
F		3.634924288		-0.177549516		-0.052847823
F		-0.157024974		-4.029683793		-2.250823436
F		2.219142238		-1.848921976		-2.426636189
F		1.618678795		0.743980339		-2.40196142
F		-1.473429422		1.654774631		-2.196728711
F		-1.006346886		-1.242236652		-1.117959969
F		-0.110975974		-1.013127809		-3.404543481
F		0.556680596		0.345598898		-0.211961802
F		1.099298134		-1.99751471		-0.234259373
12
-185.77729729
Al		0.166243772		-2.355602811		-1.590296261
Al		1.92541593		-0.568509456		-0.570605024
Al		-0.444466406		0.281547703		-1.565200483
F		3.633523288		-0.177902816		-0.049811423
F		-0.158425974		-4.030037093		-2.247787036
F		2.202268438		-1.843617876		-2.406821389
F		1.605936895		0.731442339		-2.38231642
F		-1.474830422		1.654421331		-2.193692311
F		-1.025810686		-1.246910252		-1.100501369
F		-0.111815974		-1.013574909		-3.377999581
F		0.549118796		0.353016198		-0.187604402
F		1.095868134		-2.00793941		-0.210071773
12
-185.77729729
Al		0.184457972		-2.351009111		-1.629770361
Al		1.94363013		-0.563915756		-0.610079124
Al		-0.426252206		0.286141403		-1.604674583
F		3.632122288		-0.178256116		-0.046775023
F		-0.159826974		-4.030390393		-2.244750636
F		2.185394638		-1.838313776		-2.387006589
F		1.593194995		0.718904339		-2.36267142
F		-1.476231422		1.654068031		-2.190655911
F		-1.045274486		-1.251583852		-1.083042769
F		-0.112655974		-1.014022009		-3.351455681
F		0.541556996		0.360433498		-0.163247002
F		1.092438134		-2.01836411		-0.185884173
12
-185.77729729
Al		0.202672172		-2.346415411		-1.669244461
Al		1.96184433		-0.559322056		-0.649553224
Al		-0.408038006		0.290735103		-1.644148683
F		3.630721288		-0.178609416		-0.043738623
F		-0.161227974		-4.030743693		-2.241714236
F		2.168520838		-1.833009676		-2.367191789
F		1.580453095		0.706366339		-2.34302642
F		-1.477632422		1.653714731		-2.187619511
F		-1.064738286		-1.256257452		-1.065584169
F		-0.113495974		-1.014469109		-3.324911781
F		0.533995196		0.367850798		-0.138889602
F		1.089008134		-2.02878881		-0.161696573
12
-185.77729729
Al		0.220886372		-2.341821711		-1.708718561
Al		1.98005853		-0.554728356		-0.689027324
Al		-0.389823806		0.295328803		-1.683622783
F		3.629320288		-0.178962716		-0.040702223
F		-0.162628974		-4.031096993		-2.238677836
F		2.151647038		-1.827705576		-2.347376989
F		1.567711195		0.693828339		-2.32338142
F		-1.479033422		1.653361431		-2.184583111
F		-1.084202086		-1.260931052		-1.048125569
F		-0.114335974		-1.014916209		-3.298367881
F		0.526433396		0.375268098		-0.114532202
F		1.085578134		-2.03921351		-0.137508973
12
-185.77729729
Al		0.239100572		-2.337228011		-1.748192661
Al		1.99827273		-0.550134656		-0.728501424
Al		-0.371609606		0.299922503		-1.723096883
F		3.627919288		-0.179316016		-0.037665823
F		-0.164029974		-4.031450293		-2.235641436
F		2.134773238		-1.822401476		-2.327562189
F		1.554969295		0.681290339		-2.30373642
F		-1.480434422		1.653008131		-2.181546711
F		-1.103665886		-1.265604652		-1.030666969
F		-0.115175974		-1.015363309		-3.271823981
F		0.518871596		0.382685398		-0.090174802
F		1.082148134		-2.04963821		-0.113321373
12
-185.77729729
Al		0.257314772		-2.332634311		-1.787666761
Al		2.01648693		-0.545540956		-0.767975524
Al		-0.353395406		0.304516203		-1.762570983
F		3.626518288		-0.179669316		-0.034629423
F		-0.165430974		-4.031803593		-2.232605036
F		2.117899438		-1.817097376		-2.307747389
F		1.542227395		0.668752339		-2.28409142
F		-1.481835422		1.652654831		-2.178510311
F		-1.123129686		-1.270278252		-1.013208369
F		-0.116015974		-1.015810409		-3.245280081
F		0.511309796		0.390102698		-0.065817402
F		1.078718134		-2.06006291		-0.089133773
12
-185.77729729
Al		0.275528972		-2.328040611		-1.827140861
Al		2.03470113		-0.540947256		-0.807449624
Al		-0.335181206		0.309109903		-1.802045083
F		3.625117288		-0.180022616		-0.031593023
F		-0.166831974		-4.032156893		-2.229568636
F		2.101025638		-1.811793276		-2.287932589
F		1.529485495		0.656214339		-2.26444642
F		-1.483236422		1.652301531		-2.175473911
F		-1.142593486		-1.274951852		-0.995749769
F		-0.116855974		-1.016257509		-3.218736181
F		0.503747996		0.397519998		-0.041460002
F		1.075288134		-2.07048761		-0.064946173
12
-185.77729729
Al		0.293743172		-2.323446911		-1.866614961
Al		2.05291533		-0.536353556		-0.846923724
Al		-0.316967006		0.313703603		-1.841519183
F		3.623716288		-0.180375916		-0.028556623
F		-0.168232974		-4.032510193		-2.226532236
F		2.084151838		-1.806489176		-2.268117789
F		1.516743595		0.643676339		-2.24480142
F		-1.484637422		1.651948231		-2.172437511
F		-1.162057286		-1.279625452		-0.978291169
F		-0.117695974		-1.016704609		-3.192192281
F		0.496186196		0.404937298		-0.017102602
F		1.071858134		-2.08091231		-0.040758573
12
-185.77729729
Al		0.311957372		-2.318853211		-1.906089061
Al		2.07112953		-0.531759856		-0.886397824
Al		-0.298752806		0.318297303		-1.880993283
F		3.622315288		-0.180729216		-0.025520223
F		-0.169633974		-4.032863493		-2.223495836
F		2.067278038		-1.801185076		-2.248302989
F		1.504001695		0.631138339		-2.22515642
F		-1.486038422		1.651594931		-2.169401111
F		-1.181521086		-1.284299052		-0.960832569
F		-0.118535974		-1.017151709		-3.165648381
F		0.488624396		0.412354598		0.007254798
F		1.068428134		-2.09133701		-0.016570973
12
-185.77729729
Al		0.330171572		-2.314259511		-1.945563161
Al		2.08934373		-0.527166156		-0.925871924
Al		-0.280538606		0.322891003		-1.920467383
F		3.620914288		-0.181082516		-0.022483823
F		-0.171034974		-4.033216793		-2.220459436
F		2.050404238		-1.795880976		-2.228488189
F		1.491259795		0.618600339		-2.20551142
F		-1.487439422		1.651241631		-2.166364711
F		-1.200984886		-1.288972652		-0.943373969
F		-0.119375974		-1.017598809		-3.139104481
F		0.481062596		0.419771898		0.031612198
F		1.064998134		-2.10176171		0.007616627
12
-185.77729729
Al		0.348385772		-2.309665811		-1.985037261
Al		2.10755793		-0.522572456		-0.965346024
Al		-0.262324406		0.327484703		-1.959941483
F		3.619513288		-0.181435816		-0.019447423
F		-0.172435974		-4.033570093		-2.217423036
F		2.033530438		-1.790576876		-2.208673389
F		1.478517895		0.606062339		-2.18586642
F		-1.488840422		1.650888331		-2.163328311
F		-1.220448686		-1.293646252		-0.925915369
F		-0.120215974		-1.018045909		-3.112560581
F		0.473500796		0.427189198		0.055969598
F		1.061568134		-2.11218641		0.031804227
12
-185.77729729
Al		0.366599972		-2.305072111		-2.024511361
Al		2.12577213		-0.517978756		-1.004820124
Al		-0.244110206		0.332078403		-1.999415583
F		3.618112288		-0.181789116		-0.016411023
F		-0.173836974		-4.033923393		-2.214386636
F		2.016656638		-1.785272776		-2.188858589
F		1.465775995		0.593524339		-2.16622142
F		-1.490241422		1.650535031		-2.160291911
F		-1.239912486		-1.298319852		-0.908456769
F		-0.121055974		-1.018493009		-3.086016681
F		0.465938996		0.434606498		0.080326998
F		1.058138134		-2.12261111		0.055991827
12
-185.77729729
Al		0.384814172		-2.300478411		-2.063985461
Al		2.14398633		-0.513385056		-1.044294224
Al		-0.225896006		0.336672103		-2.038889683
F		3.616711288		-0.182142416		-0.013374623
F		-0.175237974		-4.034276693		-2.211350236
F		1.999782838		-1.779968676		-2.169043789
F		1.453034095		0.580986339		-2.14657642
F		-1.491642422		1.650181731		-2.157255511
F		-1.259376286		-1.302993452		-0.890998169
F		-0.121895974		-1.018940109		-3.059472781
F		0.458377196		0.442023798		0.104684398
F		1.054708134		-2.13303581		0.080179427
12
-185.77729729
Al		0.403028372		-2.295884711		-2.103459561
Al		2.16220053		-0.508791356		-1.083768324
Al		-0.207681806		0.341265803		-2.078363783
F		3.615310288		-0.182495716		-0.010338223
F		-0.176638974		-4.034629993		-2.208313836
F		1.982909038		-1.774664576		-2.149228989
F		1.440292195		0.568448339		-2.12693142
F		-1.493043422		1.649828431		-2.154219111
F		-1.278840086		-1.307667052		-0.873539569
F		-0.122735974		-1.019387209		-3.032928881
F		0.450815396		0.449441098		0.129041798
F		1.051278134		-2.14346051		0.104367027
12
-185.77729729
Al		0.421242572		-2.291291011		-2.142933661
Al		2.18041473		-0.504197656		-1.123242424
Al		-0.189467606		0.345859503		-2.117837883
F		3.613909288		-0.182849016		-0.007301823
F		-0.178039974		-4.034983293		-2.205277436
F		1.966035238		-1.769360476		-2.129414189
F		1.427550295		0.555910339		-2.10728642
F		-1.494444422		1.649475131		-2.151182711
F		-1.298303886		-1.312340652		-0.856080969
F		-0.123575974		-1.019834309		-3.006384981
F		0.443253596		0.456858398		0.153399198
F		1.047848134		-2.15388521		0.128554627
12
-185.77729729
Al		0.439456772		-2.286697311		-2.182407761
Al		2.19862893		-0.499603956		-1.162716524
Al		-0.171253406		0.350453203		-2.157311983
F		3.612508288		-0.183202316		-0.004265423
F		-0.179440974		-4.035336593		-2.202241036
F		1.949161438		-1.764056376		-2.109599389
F		1.414808395		0.543372339		-2.08764142
F		-1.495845422		1.649121831		-2.148146311
F		-1.317767686		-1.317014252		-0.838622369
F		-0.124415974		-1.020281409		-2.979841081
F		0.435691796		0.464275698		0.177756598
F		1.044418134		-2.16430991		0.152742227
