12
Properties=species:S:1:pos:R:3:forces:R:3 energy=-184.56461488 pbc="F F F"
Al    0.214323372    -2.5006630110000003    -1.875471261    0.576202    1.843274    0.480382
Al    2.29679933    -0.5190296560000001    -0.6839604239999999    0.335246    0.563948    0.220318
Al    -0.458686806    0.598503303    -1.8253556830000002    0.158993    0.646053    0.148545
F    4.1067878879999995    -0.077108016    0.202637777    0.95987    0.17195    0.462916
F    -0.240011174    -4.256275093    -2.289416836    0.496135    1.882264    0.447971
F    1.848274438    -1.832092676    -2.174402789    -2.178289    -1.362489    -0.223845
F    1.4624124950000001    0.607210539    -2.25238522    0.463863    0.62741    -1.130332
F    -1.838661822    2.051036931    -2.2930735110000002    -0.529168    0.560918    -0.178895
F    -0.929532086    -1.435653452    -1.106677569    1.310479    -1.949141    -0.725261
F    -0.047165174000000004    -1.213117109    -3.018949781    0.480435    -2.158481    1.073616
F    0.473329396    0.357760198    -0.10883640200000001    -0.602648    0.358432    1.181019
F    0.997494934    -2.04666201    -0.330586573    -1.471118    -1.184137    -1.756437
