      12
SCF Done            -184.56461487
Al            0.294585372        -2.268555011        -1.811425261
Al            2.059880330        -0.500569656        -0.791132424
Al           -0.327950806         0.354036303        -1.793480683
F             3.701238888        -0.163193016         0.005489777
F            -0.130377174        -3.891542093        -2.196383836
F             1.974364438        -1.908249676        -2.314991789
F             1.562225495         0.702999539        -2.345195220
F            -1.523392822         1.698597931        -2.188615511
F            -1.071385086        -1.402281452        -1.036400569
F            -0.089809174        -1.154725109        -3.163679781
F             0.460264396         0.425081198         0.042983598
F             0.980688934        -2.158858010        -0.161490573
