12
Properties=species:S:1:pos:R:3:forces:R:3 energy=-187.37458462 pbc="F F F"
Al    1.24482218    0.051375617    2.427841673    -0.003524    0.016608    0.006382
Al    1.1161084    1.4447316    0.013093899999999992    -0.115568    0.10961    0.056935
Al    -0.339751062    0.82978955    -2.2871951729999997    -0.004974    0.017319    0.002072
F    -1.4190067720000001    -0.681235253    -2.365019406    0.044957    -0.06338    -0.023037
F    1.6716116530000003    -0.350532053    0.629044352    -0.050746    -0.032922    -0.014187
F    0.061404138999999996    1.79927569    -3.769527133    0.003096    -0.003482    -0.001671
F    -0.33836890999999997    2.282114553    -0.9420636490000001    0.024049    0.052324    -0.02691
F    2.7941593570000003    2.216552212    -0.42342424300000003    0.051412    -0.033907    -0.022876
F    1.023748039    -0.03227319499999999    -1.298726554    -0.035532    -0.040395    0.031079
F    0.594326317    1.8239317290000001    1.833256239    0.04024    0.04437    0.021268
F    2.5346759690000003    0.584294476    3.589913637    0.003129    -0.003498    -0.001573
F    0.278202075    -1.5149811519999998    2.685170271    0.043462    -0.062647    -0.027483
