      12
SCF Done            -187.37458440
Al            1.281586180         0.050164617         2.444388673
Al            1.259007400         1.209975600        -0.073686100
Al           -0.320143062         0.837005550        -2.321696173
F            -1.646642772        -0.397788253        -2.231382406
F             2.028199653        -0.352980053         0.745426352
F             0.050325139         1.819794690        -3.798142133
F            -0.358640910         1.964970553        -0.785279649
F             2.605295357         2.400631212        -0.329563243
F             1.240848039         0.033800805        -1.597403554
F             0.454783317         1.565378729         1.635138239
F             2.544656969         0.594468476         3.623964637
F             0.044470075        -1.228539152         2.800667271
