12
-186.39349496
Al		-0.077759		1.640650558		2.155347399
Al		2.525395783		2.606951332		1.765490874
Al		1.358151521		2.6647299		-0.647106773
F		1.001375495		3.092959226		2.835336994
F		-1.578009267		2.684912712		2.176388526
F		-0.493332574		-0.026425328		2.752820748
F		1.809484856		0.868099601		1.934184098
F		2.964893819		1.857032714		-0.072848269
F		1.087721184		3.034766157		-2.395744484
F		1.747750124		4.0152035		0.633003385
F		4.110534765		3.125604494		2.460090988
F		-0.009563855		1.800783993		0.211960729
