12
-186.39349496
Al		-0.064729313		1.628670172		2.16621552
Al		2.528928796		2.588567725		1.742651475
Al		1.338137384		2.690996184		-0.653949554
F		1.016237078		3.090255536		2.816341963
F		-1.547456283		2.702058522		2.185035186
F		-0.515221771		-0.029500466		2.76019803
F		1.817157653		0.848894393		1.949215565
F		2.946724745		1.865433953		-0.080555716
F		1.099539309		3.030333333		-2.412443012
F		1.745297894		4.028757887		0.628065067
F		4.078438668		3.139159277		2.49769198
F		0.004250209		1.78242771		0.214063093
