12
-186.39349496
Al		-0.07644287		1.639440418		2.156445189
Al		2.525752653		2.605094402		1.763183864
Al		1.356129891		2.66738306		-0.647797963
F		1.002876665		3.092686126		2.833418304
F		-1.574923107		2.686644612		2.177261926
F		-0.495543604		-0.026735948		2.753565928
F		1.810259886		0.866159681		1.935702428
F		2.963058559		1.857881324		-0.073626799
F		1.088914934		3.034318397		-2.397431204
F		1.747502424		4.01657263		0.632504565
F		4.107292735		3.126973664		2.463889068
F		-0.008168495		1.798929823		0.212173089
