12
-186.39349496
Al		-0.076179644		1.63919839		2.156664747
Al		2.525824027		2.604723016		1.762722462
Al		1.355725565		2.667913692		-0.647936201
F		1.003176899		3.092631506		2.833034566
F		-1.574305875		2.686990992		2.177436606
F		-0.49598581		-0.026798072		2.753714964
F		1.810414892		0.865771697		1.936006094
F		2.962691507		1.858051046		-0.073782505
F		1.089153684		3.034228845		-2.397768548
F		1.747452884		4.016846456		0.632404801
F		4.106644329		3.127247498		2.464648684
F		-0.007889423		1.798558989		0.212215561
