12
-186.39349496
Al		-0.075521579		1.63859332		2.157213642
Al		2.526002462		2.603794551		1.761568957
Al		1.35471475		2.669240272		-0.648281796
F		1.003927484		3.092494956		2.832075221
F		-1.572762795		2.687856942		2.177873306
F		-0.497091325		-0.026953382		2.754087554
F		1.810802407		0.864801737		1.936765259
F		2.961773877		1.858475351		-0.07417177
F		1.089750559		3.034004965		-2.398611908
F		1.747329034		4.017531021		0.632155391
F		4.105023314		3.127932083		2.466547724
F		-0.007191743		1.797631904		0.212321741
