12
-186.39349496
Al		-0.077627387		1.640529544		2.155457178
Al		2.52543147		2.606765639		1.765260173
Al		1.357949358		2.664995216		-0.647175892
F		1.001525612		3.092931916		2.835145125
F		-1.577700651		2.685085902		2.176475866
F		-0.493553677		-0.02645639		2.752895266
F		1.809562359		0.867905609		1.934335931
F		2.964710293		1.857117575		-0.072926122
F		1.087840559		3.034721381		-2.395913156
F		1.747725354		4.015340413		0.632953503
F		4.110210562		3.125741411		2.460470796
F		-0.009424319		1.800598576		0.211981965
