12
-186.39349496
Al		-0.074205449		1.63738318		2.158311432
Al		2.526359332		2.601937621		1.759261947
Al		1.35269312		2.671893432		-0.648972986
F		1.005428654		3.092221856		2.830156531
F		-1.569676635		2.689588842		2.178746706
F		-0.499302355		-0.027264002		2.754832734
F		1.811577437		0.862861817		1.938283589
F		2.959938617		1.859323961		-0.0749503
F		1.090944309		3.033557205		-2.400298628
F		1.747081334		4.018900151		0.631656571
F		4.101781284		3.129301253		2.470345804
F		-0.005796383		1.795777734		0.212534101
