12
-186.39349496
Al		-0.073547384		1.63677811		2.158860327
Al		2.526537767		2.601009156		1.758108442
Al		1.351682305		2.673220012		-0.649318581
F		1.006179239		3.092085306		2.829197186
F		-1.568133555		2.690454792		2.179183406
F		-0.50040787		-0.027419312		2.755205324
F		1.811964952		0.861891857		1.939042754
F		2.959020987		1.859748266		-0.075339565
F		1.091541184		3.033333325		-2.401141988
F		1.746957484		4.019584716		0.631407161
F		4.100160269		3.129985838		2.472244844
F		-0.005098703		1.794850649		0.212640281
