12
-186.39349496
Al		-0.077364161		1.640287516		2.155676736
Al		2.525502844		2.606394253		1.764798771
Al		1.357545032		2.665525848		-0.64731413
F		1.001825846		3.092877296		2.834761387
F		-1.577083419		2.685432282		2.176650546
F		-0.493995883		-0.026518514		2.753044302
F		1.809717365		0.867517625		1.934639597
F		2.964343241		1.857287297		-0.073081828
F		1.088079309		3.034631829		-2.3962505
F		1.747675814		4.015614239		0.632853739
F		4.109562156		3.126015245		2.461230412
F		-0.009145247		1.800227742		0.212024437
