12
-186.39349496
Al		-0.072362867		1.635688984		2.159848338
Al		2.52685895		2.599337919		1.756032133
Al		1.349862838		2.675607856		-0.649940652
F		1.007530292		3.091839516		2.827470365
F		-1.565356011		2.692013502		2.179969466
F		-0.502397797		-0.02769887		2.755875986
F		1.812662479		0.860145929		1.940409251
F		2.957369253		1.860512015		-0.076040242
F		1.092615559		3.032930341		-2.402660036
F		1.746734554		4.020816933		0.630958223
F		4.097242442		3.131218091		2.475663116
F		-0.003842879		1.793181896		0.212831405
