12
-186.39349496
Al		-0.072099641		1.635446956		2.160067896
Al		2.526930324		2.598966533		1.755570731
Al		1.349458512		2.676138488		-0.65007889
F		1.007830526		3.091784896		2.827086627
F		-1.564738779		2.692359882		2.180144146
F		-0.502840003		-0.027760994		2.756025022
F		1.812817485		0.859757945		1.940712917
F		2.957002201		1.860681737		-0.076195948
F		1.092854309		3.032840789		-2.40299738
F		1.746685014		4.021090759		0.630858459
F		4.096594036		3.131491925		2.476422732
F		-0.003563807		1.792811062		0.212873877
