12
-186.39349496
Al		-0.071836415		1.635204928		2.160287454
Al		2.527001698		2.598595147		1.755109329
Al		1.349054186		2.67666912		-0.650217128
F		1.00813076		3.091730276		2.826702889
F		-1.564121547		2.692706262		2.180318826
F		-0.503282209		-0.027823118		2.756174058
F		1.812972491		0.859369961		1.941016583
F		2.956635149		1.860851459		-0.076351654
F		1.093093059		3.032751237		-2.403334724
F		1.746635474		4.021364585		0.630758695
F		4.09594563		3.131765759		2.477182348
F		-0.003284735		1.792440228		0.212916349
