12
-186.39349496
Al		-0.070783511		1.634236816		2.161165686
Al		2.527287194		2.597109603		1.753263721
Al		1.347436882		2.678791648		-0.65077008
F		1.009331696		3.091511796		2.825167937
F		-1.561652619		2.694091782		2.181017546
F		-0.505051033		-0.028071614		2.756770202
F		1.813592515		0.857818025		1.942231247
F		2.955166941		1.861530347		-0.076974478
F		1.094048059		3.032393029		-2.4046841
F		1.746437314		4.022459889		0.630359639
F		4.093352006		3.132861095		2.480220812
F		-0.002168447		1.790956892		0.213086237
