12
-186.39349496
Al		-0.070651898		1.634115802		2.161275465
Al		2.527322881		2.59692391		1.75303302
Al		1.347234719		2.679056964		-0.650839199
F		1.009481813		3.091484486		2.824976068
F		-1.561344003		2.694264972		2.181104886
F		-0.505272136		-0.028102676		2.75684472
F		1.813670018		0.857624033		1.94238308
F		2.954983415		1.861615208		-0.077052331
F		1.094167434		3.032348253		-2.404852772
F		1.746412544		4.022596802		0.630309757
F		4.093027803		3.132998012		2.48060062
F		-0.002028911		1.790771475		0.213107473
