12
-186.39349496
Al		-0.070520285		1.633994788		2.161385244
Al		2.527358568		2.596738217		1.752802319
Al		1.347032556		2.67932228		-0.650908318
F		1.00963193		3.091457176		2.824784199
F		-1.561035387		2.694438162		2.181192226
F		-0.505493239		-0.028133738		2.756919238
F		1.813747521		0.857430041		1.942534913
F		2.954799889		1.861700069		-0.077130184
F		1.094286809		3.032303477		-2.405021444
F		1.746387774		4.022733715		0.630259875
F		4.0927036		3.133134929		2.480980428
F		-0.001889375		1.790586058		0.213128709
