12
-186.39349496
Al		-0.069730607		1.633268704		2.162043918
Al		2.52757269		2.595624059		1.751418113
Al		1.345819578		2.680914176		-0.651323032
F		1.010532632		3.091293316		2.823632985
F		-1.559183691		2.695477302		2.181716266
F		-0.506819857		-0.02832011		2.757366346
F		1.814212539		0.856266089		1.943445911
F		2.953698733		1.862209235		-0.077597302
F		1.095003059		3.032034821		-2.406033476
F		1.746239154		4.023555193		0.629960583
F		4.090758382		3.133956431		2.483259276
F		-0.001052159		1.789473556		0.213256125
