12
-186.39349496
Al		-0.069467381		1.633026676		2.162263476
Al		2.527644064		2.595252673		1.750956711
Al		1.345415252		2.681444808		-0.65146127
F		1.010832866		3.091238696		2.823249247
F		-1.558566459		2.695823682		2.181890946
F		-0.507262063		-0.028382234		2.757515382
F		1.814367545		0.855878105		1.943749577
F		2.953331681		1.862378957		-0.077753008
F		1.095241809		3.031945269		-2.40637082
F		1.746189614		4.023829019		0.629860819
F		4.090109976		3.134230265		2.484018892
F		-0.000773087		1.789102722		0.213298597
