12
-186.39349496
Al		-0.069335768		1.632905662		2.162373255
Al		2.527679751		2.59506698		1.75072601
Al		1.345213089		2.681710124		-0.651530389
F		1.010982983		3.091211386		2.823057378
F		-1.558257843		2.695996872		2.181978286
F		-0.507483166		-0.028413296		2.7575899
F		1.814445048		0.855684113		1.94390141
F		2.953148155		1.862463818		-0.077830861
F		1.095361184		3.031900493		-2.406539492
F		1.746164844		4.023965932		0.629810937
F		4.089785773		3.134367182		2.4843987
F		-0.000633551		1.788917305		0.213319833
