12
-186.39349496
Al		-0.069072542		1.632663634		2.162592813
Al		2.527751125		2.594695594		1.750264608
Al		1.344808763		2.682240756		-0.651668627
F		1.011283217		3.091156766		2.82267364
F		-1.557640611		2.696343252		2.182152966
F		-0.507925372		-0.02847542		2.757738936
F		1.814600054		0.855296129		1.944205076
F		2.952781103		1.86263354		-0.077986567
F		1.095599934		3.031810941		-2.406876836
F		1.746115304		4.024239758		0.629711173
F		4.089137367		3.134641016		2.485158316
F		-0.000354479		1.788546471		0.213362305
