12
-186.39349496
Al		-0.068809316		1.632421606		2.162812371
Al		2.527822499		2.594324208		1.749803206
Al		1.344404437		2.682771388		-0.651806865
F		1.011583451		3.091102146		2.822289902
F		-1.557023379		2.696689632		2.182327646
F		-0.508367578		-0.028537544		2.757887972
F		1.81475506		0.854908145		1.944508742
F		2.952414051		1.862803262		-0.078142273
F		1.095838684		3.031721389		-2.40721418
F		1.746065764		4.024513584		0.629611409
F		4.088488961		3.13491485		2.485917932
F		-7.5407e-05		1.788175637		0.213404777
