12
-186.39349496
Al		-0.068414477		1.632058564		2.163141708
Al		2.52792956		2.593767129		1.749111103
Al		1.343797948		2.683567336		-0.652014222
F		1.012033802		3.091020216		2.821714295
F		-1.556097531		2.697209202		2.182589666
F		-0.509030887		-0.02863073		2.758111526
F		1.814987569		0.854326169		1.944964241
F		2.951863473		1.863057845		-0.078375832
F		1.096196809		3.031587061		-2.407720196
F		1.745991454		4.024924323		0.629461763
F		4.087516352		3.135325601		2.487057356
F		0.000343201		1.787619386		0.213468485
