12
-186.39349496
Al		-0.068282864		1.63193755		2.163251487
Al		2.527965247		2.593581436		1.748880402
Al		1.343595785		2.683832652		-0.652083341
F		1.012183919		3.090992906		2.821522426
F		-1.555788915		2.697382392		2.182677006
F		-0.50925199		-0.028661792		2.758186044
F		1.815065072		0.854132177		1.945116074
F		2.951679947		1.863142706		-0.078453685
F		1.096316184		3.031542285		-2.407888868
F		1.745966684		4.025061236		0.629411881
F		4.087192149		3.135462518		2.487437164
F		0.000482737		1.787433969		0.213489721
