12
-186.39349496
Al		-0.067756412		1.631453494		2.163690603
Al		2.528107995		2.592838664		1.747957598
Al		1.342787133		2.684893916		-0.652359817
F		1.012784387		3.090883666		2.82075495
F		-1.554554451		2.698075152		2.183026366
F		-0.510136402		-0.02878604		2.758484116
F		1.815375084		0.853356209		1.945723406
F		2.950945843		1.86348215		-0.078765097
F		1.096793684		3.031363181		-2.408563556
F		1.745867604		4.025608888		0.629212353
F		4.085895337		3.136010186		2.488956396
F		0.001040881		1.786692301		0.213574665
