12
-186.39349496
Al		-0.067361573		1.631090452		2.16401994
Al		2.528215056		2.592281585		1.747265495
Al		1.342180644		2.685689864		-0.652567174
F		1.013234738		3.090801736		2.820179343
F		-1.553628603		2.698594722		2.183288386
F		-0.510799711		-0.028879226		2.75870767
F		1.815607593		0.852774233		1.946178905
F		2.950395265		1.863736733		-0.078998656
F		1.097151809		3.031228853		-2.409069572
F		1.745793294		4.026019627		0.629062707
F		4.084922728		3.136420937		2.49009582
F		0.001459489		1.78613605		0.213638373
