12
-186.39349496
Al		-0.06722996		1.630969438		2.164129719
Al		2.528250743		2.592095892		1.747034794
Al		1.341978481		2.68595518		-0.652636293
F		1.013384855		3.090774426		2.819987474
F		-1.553319987		2.698767912		2.183375726
F		-0.511020814		-0.028910288		2.758782188
F		1.815685096		0.852580241		1.946330738
F		2.950211739		1.863821594		-0.079076509
F		1.097271184		3.031184077		-2.409238244
F		1.745768524		4.02615654		0.629012825
F		4.084598525		3.136557854		2.490475628
F		0.001599025		1.785950633		0.213659609
