12
-186.39349496
Al		-0.076706096		1.639682446		2.156225631
Al		2.525681279		2.605465788		1.763645266
Al		1.356534217		2.666852428		-0.647659725
F		1.002576431		3.092740746		2.833802042
F		-1.575540339		2.686298232		2.177087246
F		-0.495101398		-0.026673824		2.753416892
F		1.81010488		0.866547665		1.935398762
F		2.963425611		1.857711602		-0.073471093
F		1.088676184		3.034407949		-2.39709386
F		1.747551964		4.016298804		0.632604329
F		4.107941141		3.12669983		2.463129452
F		-0.008447567		1.799300657		0.212130617
