12
-186.39349496
Al		-0.066045443		1.629880312		2.16511773
Al		2.528571926		2.590424655		1.744958485
Al		1.340159014		2.688343024		-0.653258364
F		1.014735908		3.090528636		2.818260653
F		-1.550542443		2.700326622		2.184161786
F		-0.513010741		-0.029189846		2.75945285
F		1.816382623		0.850834313		1.947697235
F		2.948560005		1.864585343		-0.079777186
F		1.098345559		3.030781093		-2.410756292
F		1.745545594		4.027388757		0.628563887
F		4.081680698		3.137790107		2.4938939
F		0.002854849		1.78428188		0.213850733
