12
-186.39349496
Al		-0.06591383		1.629759298		2.165227509
Al		2.528607613		2.590238962		1.744727784
Al		1.339956851		2.68860834		-0.653327483
F		1.014886025		3.090501326		2.818068784
F		-1.550233827		2.700499812		2.184249126
F		-0.513231844		-0.029220908		2.759527368
F		1.816460126		0.850640321		1.947849068
F		2.948376479		1.864670204		-0.079855039
F		1.098464934		3.030736317		-2.410924964
F		1.745520824		4.02752567		0.628514005
F		4.081356495		3.137927024		2.494273708
F		0.002994385		1.784096463		0.213871969
