12
-186.39349496
Al		-0.065518991		1.629396256		2.165556846
Al		2.528714674		2.589681883		1.744035681
Al		1.339350362		2.689404288		-0.65353484
F		1.015336376		3.090419396		2.817493177
F		-1.549307979		2.701019382		2.184511146
F		-0.513895153		-0.029314094		2.759750922
F		1.816692635		0.850058345		1.948304567
F		2.947825901		1.864924787		-0.080088598
F		1.098823059		3.030601989		-2.41143098
F		1.745446514		4.027936409		0.628364359
F		4.080383886		3.138337775		2.495413132
F		0.003412993		1.783540212		0.213935677
