12
-186.39349496
Al		-0.064860926		1.628791186		2.166105741
Al		2.528893109		2.588753418		1.742882176
Al		1.338339547		2.690730868		-0.653880435
F		1.016086961		3.090282846		2.816533832
F		-1.547764899		2.701885332		2.184947846
F		-0.515000668		-0.029469404		2.760123512
F		1.81708015		0.849088385		1.949063732
F		2.946908271		1.865349092		-0.080477863
F		1.099419934		3.030378109		-2.41227434
F		1.745322664		4.028620974		0.628114949
F		4.078762871		3.13902236		2.497312172
F		0.004110673		1.782613127		0.214041857
