12
-186.39349496
Al		-0.079601582		1.642344754		2.153810493
Al		2.524896165		2.609551034		1.768720688
Al		1.360981803		2.661015476		-0.646139107
F		0.999273857		3.093341566		2.83802316
F		-1.582329891		2.682488052		2.175165766
F		-0.490237132		-0.02599046		2.751777496
F		1.808399814		0.870815489		1.932058436
F		2.967463183		1.85584466		-0.071758327
F		1.086049934		3.035393021		-2.393383076
F		1.748096904		4.013286718		0.633701733
F		4.115073607		3.123687656		2.454773676
F		-0.011517359		1.803379831		0.211663425
