12
-186.39349496
Al		-0.080128034		1.64282881		2.153371377
Al		2.524753417		2.610293806		1.769643492
Al		1.361790455		2.659954212		-0.645862631
F		0.998673389		3.093450806		2.838790636
F		-1.583564355		2.681795292		2.174816406
F		-0.48935272		-0.025866212		2.751479424
F		1.808089802		0.871591457		1.931451104
F		2.968197287		1.855505216		-0.071446915
F		1.085572434		3.035572125		-2.392708388
F		1.748195984		4.012739066		0.633901261
F		4.116370419		3.123139988		2.453254444
F		-0.012075503		1.804121499		0.211578481
