12
-186.39349496
Al		-0.08039126		1.643070838		2.153151819
Al		2.524682043		2.610665192		1.770104894
Al		1.362194781		2.65942358		-0.645724393
F		0.998373155		3.093505426		2.839174374
F		-1.584181587		2.681448912		2.174641726
F		-0.488910514		-0.025804088		2.751330388
F		1.807934796		0.871979441		1.931147438
F		2.968564339		1.855335494		-0.071291209
F		1.085333684		3.035661677		-2.392371044
F		1.748245524		4.01246524		0.634001025
F		4.117018825		3.122866154		2.452494828
F		-0.012354575		1.804492333		0.211536009
