12
-186.39349496
Al		-0.078153839		1.6410136		2.155018062
Al		2.525288722		2.607508411		1.766182977
Al		1.35875801		2.663933952		-0.646899416
F		1.000925144		3.093041156		2.835912601
F		-1.578935115		2.684393142		2.176126506
F		-0.492669265		-0.026332142		2.752597194
F		1.809252347		0.868681577		1.933728599
F		2.965444397		1.856778131		-0.07261471
F		1.087363059		3.034900485		-2.395238468
F		1.747824434		4.014792761		0.633153031
F		4.111507374		3.125193743		2.458951564
F		-0.009982463		1.801340244		0.211897021
