12
-186.39349496
Al		-0.080786099		1.64343388		2.152822482
Al		2.524574982		2.611222271		1.770796997
Al		1.36280127		2.658627632		-0.645517036
F		0.997922804		3.093587356		2.839749981
F		-1.585107435		2.680929342		2.174379706
F		-0.488247205		-0.025710902		2.751106834
F		1.807702287		0.872561417		1.930691939
F		2.969114917		1.855080911		-0.07105765
F		1.084975559		3.035796005		-2.391865028
F		1.748319834		4.012054501		0.634150671
F		4.117991434		3.122455403		2.451355404
F		-0.012773183		1.805048584		0.211472301
