12
-186.39349496
Al		-0.081312551		1.643917936		2.152383366
Al		2.524432234		2.611965043		1.771719801
Al		1.363609922		2.657566368		-0.64524056
F		0.997322336		3.093696596		2.840517457
F		-1.586341899		2.680236582		2.174030346
F		-0.487362793		-0.025586654		2.750808762
F		1.807392275		0.873337385		1.930084607
F		2.969849021		1.854741467		-0.070746238
F		1.084498059		3.035975109		-2.39119034
F		1.748418914		4.011506849		0.634350199
F		4.119288246		3.121907735		2.449836172
F		-0.013331327		1.805790252		0.211387357
