12
-186.39349496
Al		-0.081575777		1.644159964		2.152163808
Al		2.52436086		2.612336429		1.772181203
Al		1.364014248		2.657035736		-0.645102322
F		0.997022102		3.093751216		2.840901195
F		-1.586959131		2.679890202		2.173855666
F		-0.486920587		-0.02552453		2.750659726
F		1.807237269		0.873725369		1.929780941
F		2.970216073		1.854571745		-0.070590532
F		1.084259309		3.036064661		-2.390852996
F		1.748468454		4.011233023		0.634449963
F		4.119936652		3.121633901		2.449076556
F		-0.013610399		1.806161086		0.211344885
