12
-186.39349496
Al		-0.08170739		1.644280978		2.152054029
Al		2.524325173		2.612522122		1.772411904
Al		1.364216411		2.65677042		-0.645033203
F		0.996871985		3.093778526		2.841093064
F		-1.587267747		2.679717012		2.173768326
F		-0.486699484		-0.025493468		2.750585208
F		1.807159766		0.873919361		1.929629108
F		2.970399599		1.854486884		-0.070512679
F		1.084139934		3.036109437		-2.390684324
F		1.748493224		4.01109611		0.634499845
F		4.120260855		3.121496984		2.448696748
F		-0.013749935		1.806346503		0.211323649
