12
-186.39349496
Al		-0.081839003		1.644401992		2.15194425
Al		2.524289486		2.612707815		1.772642605
Al		1.364418574		2.656505104		-0.644964084
F		0.996721868		3.093805836		2.841284933
F		-1.587576363		2.679543822		2.173680986
F		-0.486478381		-0.025462406		2.75051069
F		1.807082263		0.874113353		1.929477275
F		2.970583125		1.854402023		-0.070434826
F		1.084020559		3.036154213		-2.390515652
F		1.748517994		4.010959197		0.634549727
F		4.120585058		3.121360067		2.44831694
F		-0.013889471		1.80653192		0.211302413
