12
-186.39349496
Al		-0.082628681		1.645128076		2.151285576
Al		2.524075364		2.613821973		1.774026811
Al		1.365631552		2.654913208		-0.64454937
F		0.995821166		3.093969696		2.842436147
F		-1.589428059		2.678504682		2.173156946
F		-0.485151763		-0.025276034		2.750063582
F		1.806617245		0.875277305		1.928566277
F		2.971684281		1.853892857		-0.069967708
F		1.083304309		3.036422869		-2.38950362
F		1.748666614		4.010137719		0.634849019
F		4.122530276		3.120538565		2.446038092
F		-0.014726687		1.807644422		0.211174997
