12
-186.39349496
Al		-0.082760294		1.64524909		2.151175797
Al		2.524039677		2.614007666		1.774257512
Al		1.365833715		2.654647892		-0.644480251
F		0.995671049		3.093997006		2.842628016
F		-1.589736675		2.678331492		2.173069606
F		-0.48493066		-0.025244972		2.749989064
F		1.806539742		0.875471297		1.928414444
F		2.971867807		1.853807996		-0.069889855
F		1.083184934		3.036467645		-2.389334948
F		1.748691384		4.010000806		0.634898901
F		4.122854479		3.120401648		2.445658284
F		-0.014866223		1.807829839		0.211153761
