12
-186.39349496
Al		-0.083286746		1.645733146		2.150736681
Al		2.523896929		2.614750438		1.775180316
Al		1.366642367		2.653586628		-0.644203775
F		0.995070581		3.094106246		2.843395492
F		-1.590971139		2.677638732		2.172720246
F		-0.484046248		-0.025120724		2.749690992
F		1.80622973		0.876247265		1.927807112
F		2.972601911		1.853468552		-0.069578443
F		1.082707434		3.036646749		-2.38866026
F		1.748790464		4.009453154		0.635098429
F		4.124151291		3.11985398		2.444139052
F		-0.015424367		1.808571507		0.211068817
