12
-186.39349496
Al		-0.084208037		1.646580244		2.149968228
Al		2.52364712		2.616050289		1.776795223
Al		1.368057508		2.651729416		-0.643719942
F		0.994019762		3.094297416		2.844738575
F		-1.593131451		2.676426402		2.172108866
F		-0.482498527		-0.02490329		2.749169366
F		1.805687209		0.877605209		1.926744281
F		2.973886593		1.852874525		-0.069033472
F		1.081871809		3.036960181		-2.387479556
F		1.748963854		4.008494763		0.635447603
F		4.126420712		3.118895561		2.441480396
F		-0.016401119		1.809869426		0.210920165
