12
-186.39349496
Al		-0.078548678		1.641376642		2.154688725
Al		2.525181661		2.60806549		1.76687508
Al		1.359364499		2.663138004		-0.646692059
F		1.000474793		3.093123086		2.836488208
F		-1.579860963		2.683873572		2.175864486
F		-0.492005956		-0.026238956		2.75237364
F		1.809019838		0.869263553		1.9332731
F		2.965994975		1.856523548		-0.072381151
F		1.087004934		3.035034813		-2.394732452
F		1.747898744		4.014382022		0.633302677
F		4.112479983		3.124782992		2.45781214
F		-0.010401071		1.801896495		0.211833313
