12
-186.39349496
Al		-0.08697191		1.649121538		2.147662869
Al		2.522897693		2.619949842		1.781639944
Al		1.372302931		2.64615778		-0.642268443
F		0.990867305		3.094870926		2.848767824
F		-1.599612387		2.672789412		2.170274726
F		-0.477855364		-0.024250988		2.747604488
F		1.804059646		0.881679041		1.923555788
F		2.977740639		1.851092444		-0.067398559
F		1.079364934		3.037900477		-2.383937444
F		1.749484024		4.00561959		0.636495125
F		4.133228975		3.116020304		2.433504428
F		-0.019331375		1.813763183		0.210474209
