12
-186.39349496
Al		-0.087103523		1.649242552		2.14755309
Al		2.522862006		2.620135535		1.781870645
Al		1.372505094		2.645892464		-0.642199324
F		0.990717188		3.094898236		2.848959693
F		-1.599921003		2.672616222		2.170187386
F		-0.477634261		-0.024219926		2.74752997
F		1.803982143		0.881873033		1.923403955
F		2.977924165		1.851007583		-0.067320706
F		1.079245559		3.037945253		-2.383768772
F		1.749508794		4.005482677		0.636545007
F		4.133553178		3.115883387		2.43312462
F		-0.019470911		1.8139486		0.210452973
