12
-186.39349496
Al		-0.087366749		1.64948458		2.147333532
Al		2.522790632		2.620506921		1.782332047
Al		1.37290942		2.645361832		-0.642061086
F		0.990416954		3.094952856		2.849343431
F		-1.600538235		2.672269842		2.170012706
F		-0.477192055		-0.024157802		2.747380934
F		1.803827137		0.882261017		1.923100289
F		2.978291217		1.850837861		-0.067165
F		1.079006809		3.038034805		-2.383431428
F		1.749558334		4.005208851		0.636644771
F		4.134201584		3.115609553		2.432365004
F		-0.019749983		1.814319434		0.210410501
