12
-186.39349496
Al		-0.08828804		1.650331678		2.146565079
Al		2.522540823		2.621806772		1.783946954
Al		1.374324561		2.64350462		-0.641577253
F		0.989366135		3.095144026		2.850686514
F		-1.602698547		2.671057512		2.169401326
F		-0.475644334		-0.023940368		2.746859308
F		1.803284616		0.883618961		1.922037458
F		2.979575899		1.850243834		-0.066620029
F		1.078171184		3.038348237		-2.382250724
F		1.749731724		4.00425046		0.636993945
F		4.136471005		3.114651134		2.429706348
F		-0.020726735		1.815617353		0.210261849
