12
-186.39349496
Al		-0.088551266		1.650573706		2.146345521
Al		2.522469449		2.622178158		1.784408356
Al		1.374728887		2.642973988		-0.641439015
F		0.989065901		3.095198646		2.851070252
F		-1.603315779		2.670711132		2.169226646
F		-0.475202128		-0.023878244		2.746710272
F		1.80312961		0.884006945		1.921733792
F		2.979942951		1.850074112		-0.066464323
F		1.077932434		3.038437789		-2.38191338
F		1.749781264		4.003976634		0.637093709
F		4.137119411		3.1143773		2.428946732
F		-0.021005807		1.815988187		0.210219377
