12
-186.39349496
Al		-0.088682879		1.65069472		2.146235742
Al		2.522433762		2.622363851		1.784639057
Al		1.37493105		2.642708672		-0.641369896
F		0.988915784		3.095225956		2.851262121
F		-1.603624395		2.670537942		2.169139306
F		-0.474981025		-0.023847182		2.746635754
F		1.803052107		0.884200937		1.921581959
F		2.980126477		1.849989251		-0.06638647
F		1.077813059		3.038482565		-2.381744708
F		1.749806034		4.003839721		0.637143591
F		4.137443614		3.114240383		2.428566924
F		-0.021145343		1.816173604		0.210198141
