12
-186.39349496
Al		-0.089209331		1.651178776		2.145796626
Al		2.522291014		2.623106623		1.785561861
Al		1.375739702		2.641647408		-0.64109342
F		0.988315316		3.095335196		2.852029597
F		-1.604858859		2.669845182		2.168789946
F		-0.474096613		-0.023722934		2.746337682
F		1.802742095		0.884976905		1.920974627
F		2.980860581		1.849649807		-0.066075058
F		1.077335559		3.038661669		-2.38107002
F		1.749905114		4.003292069		0.637343119
F		4.138740426		3.113692715		2.427047692
F		-0.021703487		1.816915272		0.210113197
