12
-186.39349496
Al		-0.089340944		1.65129979		2.145686847
Al		2.522255327		2.623292316		1.785792562
Al		1.375941865		2.641382092		-0.641024301
F		0.988165199		3.095362506		2.852221466
F		-1.605167475		2.669671992		2.168702606
F		-0.47387551		-0.023691872		2.746263164
F		1.802664592		0.885170897		1.920822794
F		2.981044107		1.849564946		-0.065997205
F		1.077216184		3.038706445		-2.380901348
F		1.749929884		4.003155156		0.637393001
F		4.139064629		3.113555798		2.426667884
F		-0.021843023		1.817100689		0.210091961
