12
-186.39349496
Al		-0.089867396		1.651783846		2.145247731
Al		2.522112579		2.624035088		1.786715366
Al		1.376750517		2.640320828		-0.640747825
F		0.987564731		3.095471746		2.852988942
F		-1.606401939		2.668979232		2.168353246
F		-0.472991098		-0.023567624		2.745965092
F		1.80235458		0.885946865		1.920215462
F		2.981778211		1.849225502		-0.065685793
F		1.076738684		3.038885549		-2.38022666
F		1.750028964		4.002607504		0.637592529
F		4.140361441		3.11300813		2.425148652
F		-0.022401167		1.817842357		0.210007017
