12
-186.39349496
Al		-0.090130622		1.652025874		2.145028173
Al		2.522041205		2.624406474		1.787176768
Al		1.377154843		2.639790196		-0.640609587
F		0.987264497		3.095526366		2.85337268
F		-1.607019171		2.668632852		2.168178566
F		-0.472548892		-0.0235055		2.745816056
F		1.802199574		0.886334849		1.919911796
F		2.982145263		1.84905578		-0.065530087
F		1.076499934		3.038975101		-2.379889316
F		1.750078504		4.002333678		0.637692293
F		4.141009847		3.112734296		2.424389036
F		-0.022680239		1.818213191		0.209964545
