12
-186.39349496
Al		-0.090393848		1.652267902		2.144808615
Al		2.521969831		2.62477786		1.78763817
Al		1.377559169		2.639259564		-0.640471349
F		0.986964263		3.095580986		2.853756418
F		-1.607636403		2.668286472		2.168003886
F		-0.472106686		-0.023443376		2.74566702
F		1.802044568		0.886722833		1.91960813
F		2.982512315		1.848886058		-0.065374381
F		1.076261184		3.039064653		-2.379551972
F		1.750128044		4.002059852		0.637792057
F		4.141658253		3.112460462		2.42362942
F		-0.022959311		1.818584025		0.209922073
