12
-186.39349496
Al		-0.090657074		1.65250993		2.144589057
Al		2.521898457		2.625149246		1.788099572
Al		1.377963495		2.638728932		-0.640333111
F		0.986664029		3.095635606		2.854140156
F		-1.608253635		2.667940092		2.167829206
F		-0.47166448		-0.023381252		2.745517984
F		1.801889562		0.887110817		1.919304464
F		2.982879367		1.848716336		-0.065218675
F		1.076022434		3.039154205		-2.379214628
F		1.750177584		4.001786026		0.637891821
F		4.142306659		3.112186628		2.422869804
F		-0.023238383		1.818954859		0.209879601
