12
Properties=species:S:1:pos:R:3:forces:R:3 energy=-179.77048566 pbc="F F F"
Al    -0.538274657    1.714424196    2.196257621    1.384741    1.906065    -0.607998
Al    2.059644796    2.972821525    1.8120526750000001    -10.971172    9.059744    -10.626435
Al    1.1175655580000001    2.893258181    -0.603522353    -0.850242    4.291732    4.964702
F    1.3500003520000001    3.1270932190000003    2.6270240319999996    -0.237746    -0.408614    0.437869
F    -1.3064540470000001    2.5124311429999997    2.165109295    -2.460507    1.283058    0.106974
F    -0.43313665999999995    0.075964282    2.71172456    0.802748    -0.470372    -0.10578
F    1.858974669    0.423919085    1.944328934    0.786395    -3.705789    0.418286
F    3.227106142    1.673230772    -0.067380854    3.695988    -3.330328    -0.684854
F    1.113661414    3.001073452    -2.286648804    0.149876    -0.379674    1.246641
F    1.650677868    3.8426721870000002    0.522564765    3.058244    -8.389459    3.619402
F    4.501162966000001    3.1677977110000004    2.614111068    3.799162    -0.158316    1.921262
F    0.0693295    1.832537068    0.148185905    0.842512    0.301954    -0.690068
