12
-187.38518821
Al		1.282572731		0.049014913		2.4438676
Al		1.276784		1.189243		-0.083083
Al		-0.319037854		0.835717367		-2.322280436
F		-1.67028659		-0.370212124		-2.218884788
F		2.062903977		-0.35224874		0.755890265
F		0.049374534		1.820905167		-3.797639005
F		-0.35918424		1.932346339		-0.76825662
F		2.587876553		2.420946509		-0.320355444
F		1.262990713		0.041234207		-1.625844318
F		0.441536609		1.539622071		1.613331816
F		2.544123181		0.595092707		3.624246819
F		0.020287945		-1.200334879		2.813451096
