12
-187.38518821
Al		1.276698962		0.055865416		2.446972537
Al		1.276784		1.189243		-0.083083
Al		-0.313164085		0.828866864		-2.325385373
F		-1.643634404		-0.401296144		-2.232973577
F		2.036152692		-0.365394554		0.751806713
F		0.028737984		1.844973354		-3.786730294
F		-0.372491226		1.907859481		-0.756923595
F		2.587876553		2.420946509		-0.320355444
F		1.283314423		0.057537428		-1.640886477
F		0.461271071		1.560951423		1.621124502
F		2.56475983		0.571024619		3.613338009
F		-0.006364241		-1.169250859		2.827539786
