12
-187.38518821
Al		1.28192009		0.04977608		2.444212593
Al		1.276784		1.189243		-0.083083
Al		-0.318385213		0.8349562		-2.322625429
F		-1.667325236		-0.373665904		-2.220450209
F		2.059931612		-0.353709386		0.755436537
F		0.047081584		1.82357941		-3.796426926
F		-0.360662794		1.929625577		-0.766997395
F		2.587876553		2.420946509		-0.320355444
F		1.265248903		0.043045676		-1.627515669
F		0.443729327		1.541991999		1.61419767
F		2.546416142		0.592418475		3.623034729
F		0.017326591		-1.196881099		2.815016506
