12
-187.38518821
Al		1.281801428		0.049914474		2.444275319
Al		1.276784		1.189243		-0.083083
Al		-0.318266551		0.834817806		-2.322688155
F		-1.666786808		-0.374293864		-2.220734831
F		2.059391182		-0.353974958		0.755354041
F		0.046664684		1.824065636		-3.796206548
F		-0.360931622		1.929130893		-0.766768445
F		2.587876553		2.420946509		-0.320355444
F		1.265659483		0.043375034		-1.627819551
F		0.444128003		1.542422895		1.614355098
F		2.546833044		0.591932251		3.622814349
F		0.016788163		-1.196253139		2.815301126
