12
-187.38518821
Al		1.281504773		0.050260459		2.444432134
Al		1.276784		1.189243		-0.083083
Al		-0.317969896		0.834471821		-2.32284497
F		-1.665440738		-0.375863764		-2.221446386
F		2.058040107		-0.354638888		0.755147801
F		0.045622434		1.825281201		-3.795655603
F		-0.361603692		1.927894183		-0.76619607
F		2.587876553		2.420946509		-0.320355444
F		1.266685933		0.044198429		-1.628579256
F		0.445124693		1.543500135		1.614748668
F		2.547875299		0.590716691		3.622263399
F		0.015442093		-1.194683239		2.816012676
