12
-187.38518821
Al		1.2825134		0.04908411		2.443898963
Al		1.276784		1.189243		-0.083083
Al		-0.318978523		0.83564817		-2.322311799
F		-1.670017376		-0.370526104		-2.219027099
F		2.062633762		-0.352381526		0.755849017
F		0.049166084		1.82114828		-3.797528816
F		-0.359318654		1.932098997		-0.768142145
F		2.587876553		2.420946509		-0.320355444
F		1.263196003		0.041398886		-1.625996259
F		0.441735947		1.539837519		1.61341053
F		2.544331632		0.594849595		3.624136629
F		0.020018731		-1.200020899		2.813593406
