12
-187.38518821
Al		1.281386111		0.050398853		2.44449486
Al		1.276784		1.189243		-0.083083
Al		-0.317851234		0.834333427		-2.322907696
F		-1.66490231		-0.376491724		-2.221731008
F		2.057499677		-0.35490446		0.755065305
F		0.045205534		1.825767427		-3.795435225
F		-0.36187252		1.927399499		-0.76596712
F		2.587876553		2.420946509		-0.320355444
F		1.267096513		0.044527787		-1.628883138
F		0.445523369		1.543931031		1.614906096
F		2.548292201		0.590230467		3.622043019
F		0.014903665		-1.194055279		2.816297296
