12
-187.38518821
Al		1.28132678		0.05046805		2.444526223
Al		1.276784		1.189243		-0.083083
Al		-0.317791903		0.83426423		-2.322939059
F		-1.664633096		-0.376805704		-2.221873319
F		2.057229462		-0.355037246		0.755024057
F		0.044997084		1.82601054		-3.795325036
F		-0.362006934		1.927152157		-0.765852645
F		2.587876553		2.420946509		-0.320355444
F		1.267301803		0.044692466		-1.629035079
F		0.445722707		1.544146479		1.61498481
F		2.548500652		0.589987355		3.621932829
F		0.014634451		-1.193741299		2.816439606
