12
-187.38518821
Al		1.280852132		0.051021626		2.444777127
Al		1.276784		1.189243		-0.083083
Al		-0.317317255		0.833710654		-2.323189963
F		-1.662479384		-0.379317544		-2.223011807
F		2.055067742		-0.356099534		0.754694073
F		0.043329484		1.827955444		-3.794443524
F		-0.363082246		1.925173421		-0.764936845
F		2.587876553		2.420946509		-0.320355444
F		1.268944123		0.046009898		-1.630250607
F		0.447317411		1.545870063		1.615614522
F		2.55016826		0.588042459		3.621051309
F		0.012480739		-1.191229459		2.817578086
