12
-187.38518821
Al		1.280792801		0.051090823		2.44480849
Al		1.276784		1.189243		-0.083083
Al		-0.317257924		0.833641457		-2.323221326
F		-1.66221017		-0.379631524		-2.223154118
F		2.054797527		-0.35623232		0.754652825
F		0.043121034		1.828198557		-3.794333335
F		-0.36321666		1.924926079		-0.76482237
F		2.587876553		2.420946509		-0.320355444
F		1.269149413		0.046174577		-1.630402548
F		0.447516749		1.546085511		1.615693236
F		2.550376711		0.587799347		3.620941119
F		0.012211525		-1.190915479		2.817720396
