12
-187.38518821
Al		1.280377484		0.051575202		2.445028031
Al		1.276784		1.189243		-0.083083
Al		-0.316842607		0.833157078		-2.323440867
F		-1.660325672		-0.381829384		-2.224150295
F		2.052906022		-0.357161822		0.754364089
F		0.041661884		1.829900348		-3.793562012
F		-0.364157558		1.923194685		-0.764021045
F		2.587876553		2.420946509		-0.320355444
F		1.270586443		0.04732733		-1.631466135
F		0.448912115		1.547593647		1.616244234
F		2.551835868		0.586097563		3.620169789
F		0.010327027		-1.188717619		2.818716566
