12
-187.38518821
Al		1.280258822		0.051713596		2.445090757
Al		1.276784		1.189243		-0.083083
Al		-0.316723945		0.833018684		-2.323503593
F		-1.659787244		-0.382457344		-2.224434917
F		2.052365592		-0.357427394		0.754281593
F		0.041244984		1.830386574		-3.793341634
F		-0.364426386		1.922700001		-0.763792095
F		2.587876553		2.420946509		-0.320355444
F		1.270997023		0.047656688		-1.631770017
F		0.449310791		1.548024543		1.616401662
F		2.55225277		0.585611339		3.619949409
F		0.009788599		-1.188089659		2.819001186
