12
-187.38518821
Al		1.280199491		0.051782793		2.44512212
Al		1.276784		1.189243		-0.083083
Al		-0.316664614		0.832949487		-2.323534956
F		-1.65951803		-0.382771324		-2.224577228
F		2.052095377		-0.35756018		0.754240345
F		0.041036534		1.830629687		-3.793231445
F		-0.3645608		1.922452659		-0.76367762
F		2.587876553		2.420946509		-0.320355444
F		1.271202313		0.047821367		-1.631921958
F		0.449510129		1.548239991		1.616480376
F		2.552461221		0.585368227		3.619839219
F		0.009519385		-1.187775679		2.819143496
