12
-187.38518821
Al		1.280021498		0.051990384		2.445216209
Al		1.276784		1.189243		-0.083083
Al		-0.316486621		0.832741896		-2.323629045
F		-1.658710388		-0.383713264		-2.225004161
F		2.051284732		-0.357958538		0.754116601
F		0.040411184		1.831359026		-3.792900878
F		-0.364964042		1.921710633		-0.763334195
F		2.587876553		2.420946509		-0.320355444
F		1.271818183		0.048315404		-1.632377781
F		0.450108143		1.548886335		1.616716518
F		2.553086574		0.584638891		3.619508649
F		0.008711743		-1.186833739		2.819570426
