12
-187.38518821
Al		1.279962167		0.052059581		2.445247572
Al		1.276784		1.189243		-0.083083
Al		-0.31642729		0.832672699		-2.323660408
F		-1.658441174		-0.384027244		-2.225146472
F		2.051014517		-0.358091324		0.754075353
F		0.040202734		1.831602139		-3.792790689
F		-0.365098456		1.921463291		-0.76321972
F		2.587876553		2.420946509		-0.320355444
F		1.272023473		0.048480083		-1.632529722
F		0.450307481		1.549101783		1.616795232
F		2.553295025		0.584395779		3.619398459
F		0.008442529		-1.186519759		2.819712736
