12
-187.38518821
Al		1.282335407		0.049291701		2.443993052
Al		1.276784		1.189243		-0.083083
Al		-0.31880053		0.835440579		-2.322405888
F		-1.669209734		-0.371468044		-2.219454032
F		2.061823117		-0.352779884		0.755725273
F		0.048540734		1.821877619		-3.797198249
F		-0.359721896		1.931356971		-0.76779872
F		2.587876553		2.420946509		-0.320355444
F		1.263811873		0.041892923		-1.626452082
F		0.442333961		1.540483863		1.613646672
F		2.544956985		0.594120259		3.623806059
F		0.019211089		-1.199078959		2.814020336
