12
-187.38518821
Al		1.279487519		0.052613157		2.445498476
Al		1.276784		1.189243		-0.083083
Al		-0.315952642		0.832119123		-2.323911312
F		-1.656287462		-0.386539084		-2.22628496
F		2.048852797		-0.359153612		0.753745369
F		0.038535134		1.833547043		-3.791909177
F		-0.366173768		1.919484555		-0.76230392
F		2.587876553		2.420946509		-0.320355444
F		1.273665793		0.049797515		-1.63374525
F		0.451902185		1.550825367		1.617424944
F		2.554962633		0.582450883		3.618516939
F		0.006288817		-1.184007919		2.820851216
