12
-187.38518821
Al		1.279368857		0.052751551		2.445561202
Al		1.276784		1.189243		-0.083083
Al		-0.31583398		0.831980729		-2.323974038
F		-1.655749034		-0.387167044		-2.226569582
F		2.048312367		-0.359419184		0.753662873
F		0.038118234		1.834033269		-3.791688799
F		-0.366442596		1.918989871		-0.76207497
F		2.587876553		2.420946509		-0.320355444
F		1.274076373		0.050126873		-1.634049132
F		0.452300861		1.551256263		1.617582372
F		2.555379535		0.581964659		3.618296559
F		0.005750389		-1.183379959		2.821135836
