12
-187.38518821
Al		1.279309526		0.052820748		2.445592565
Al		1.276784		1.189243		-0.083083
Al		-0.315774649		0.831911532		-2.324005401
F		-1.65547982		-0.387481024		-2.226711893
F		2.048042152		-0.35955197		0.753621625
F		0.037909784		1.834276382		-3.79157861
F		-0.36657701		1.918742529		-0.761960495
F		2.587876553		2.420946509		-0.320355444
F		1.274281663		0.050291552		-1.634201073
F		0.452500199		1.551471711		1.617661086
F		2.555587986		0.581721547		3.618186369
F		0.005481175		-1.183065979		2.821278146
