12
-187.38518821
Al		1.279131533		0.053028339		2.445686654
Al		1.276784		1.189243		-0.083083
Al		-0.315596656		0.831703941		-2.32409949
F		-1.654672178		-0.388422964		-2.227138826
F		2.047231507		-0.359950328		0.753497881
F		0.037284434		1.835005721		-3.791248043
F		-0.366980252		1.918000503		-0.76161707
F		2.587876553		2.420946509		-0.320355444
F		1.274897533		0.050785589		-1.634656896
F		0.453098213		1.552118055		1.617897228
F		2.556213339		0.580992211		3.617855799
F		0.004673533		-1.182124039		2.821705076
