12
-187.38518821
Al		1.282276076		0.049360898		2.444024415
Al		1.276784		1.189243		-0.083083
Al		-0.318741199		0.835371382		-2.322437251
F		-1.66894052		-0.371782024		-2.219596343
F		2.061552902		-0.35291267		0.755684025
F		0.048332284		1.822120732		-3.79708806
F		-0.35985631		1.931109629		-0.767684245
F		2.587876553		2.420946509		-0.320355444
F		1.264017163		0.042057602		-1.626604023
F		0.442533299		1.540699311		1.613725386
F		2.545165436		0.593877147		3.623695869
F		0.018941875		-1.198764979		2.814162646
