12
-187.38518821
Al		1.279072202		0.053097536		2.445718017
Al		1.276784		1.189243		-0.083083
Al		-0.315537325		0.831634744		-2.324130853
F		-1.654402964		-0.388736944		-2.227281137
F		2.046961292		-0.360083114		0.753456633
F		0.037075984		1.835248834		-3.791137854
F		-0.367114666		1.917753161		-0.761502595
F		2.587876553		2.420946509		-0.320355444
F		1.275102823		0.050950268		-1.634808837
F		0.453297551		1.552333503		1.617975942
F		2.55642179		0.580749099		3.617745609
F		0.004404319		-1.181810059		2.821847386
