12
-187.38518821
Al		1.278775547		0.053443521		2.445874832
Al		1.276784		1.189243		-0.083083
Al		-0.31524067		0.831288759		-2.324287668
F		-1.653056894		-0.390306844		-2.227992692
F		2.045610217		-0.360747044		0.753250393
F		0.036033734		1.836464399		-3.790586909
F		-0.367786736		1.916516451		-0.76093022
F		2.587876553		2.420946509		-0.320355444
F		1.276129273		0.051773663		-1.635568542
F		0.454294241		1.553410743		1.618369512
F		2.557464045		0.579533539		3.617194659
F		0.003058249		-1.180240159		2.822558936
