12
-187.38518821
Al		1.278656885		0.053581915		2.445937558
Al		1.276784		1.189243		-0.083083
Al		-0.315122008		0.831150365		-2.324350394
F		-1.652518466		-0.390934804		-2.228277314
F		2.045069787		-0.361012616		0.753167897
F		0.035616834		1.836950625		-3.790366531
F		-0.368055564		1.916021767		-0.76070127
F		2.587876553		2.420946509		-0.320355444
F		1.276539853		0.052103021		-1.635872424
F		0.454692917		1.553841639		1.61852694
F		2.557880947		0.579047315		3.616974279
F		0.002519821		-1.179612199		2.822843556
