12
-187.38518821
Al		1.278597554		0.053651112		2.445968921
Al		1.276784		1.189243		-0.083083
Al		-0.315062677		0.831081168		-2.324381757
F		-1.652249252		-0.391248784		-2.228419625
F		2.044799572		-0.361145402		0.753126649
F		0.035408384		1.837193738		-3.790256342
F		-0.368189978		1.915774425		-0.760586795
F		2.587876553		2.420946509		-0.320355444
F		1.276745143		0.0522677		-1.636024365
F		0.454892255		1.554057087		1.618605654
F		2.558089398		0.578804203		3.616864089
F		0.002250607		-1.179298219		2.822985866
