12
-187.38518821
Al		1.278538223		0.053720309		2.446000284
Al		1.276784		1.189243		-0.083083
Al		-0.315003346		0.831011971		-2.32441312
F		-1.651980038		-0.391562764		-2.228561936
F		2.044529357		-0.361278188		0.753085401
F		0.035199934		1.837436851		-3.790146153
F		-0.368324392		1.915527083		-0.76047232
F		2.587876553		2.420946509		-0.320355444
F		1.276950433		0.052432379		-1.636176306
F		0.455091593		1.554272535		1.618684368
F		2.558297849		0.578561091		3.616753899
F		0.001981393		-1.178984239		2.823128176
