12
-187.38518821
Al		1.282216745		0.049430095		2.444055778
Al		1.276784		1.189243		-0.083083
Al		-0.318681868		0.835302185		-2.322468614
F		-1.668671306		-0.372096004		-2.219738654
F		2.061282687		-0.353045456		0.755642777
F		0.048123834		1.822363845		-3.796977871
F		-0.359990724		1.930862287		-0.76756977
F		2.587876553		2.420946509		-0.320355444
F		1.264222453		0.042222281		-1.626755964
F		0.442732637		1.540914759		1.6138041
F		2.545373887		0.593634035		3.623585679
F		0.018672661		-1.198450999		2.814304956
