12
-187.38518821
Al		1.278478892		0.053789506		2.446031647
Al		1.276784		1.189243		-0.083083
Al		-0.314944015		0.830942774		-2.324444483
F		-1.651710824		-0.391876744		-2.228704247
F		2.044259142		-0.361410974		0.753044153
F		0.034991484		1.837679964		-3.790035964
F		-0.368458806		1.915279741		-0.760357845
F		2.587876553		2.420946509		-0.320355444
F		1.277155723		0.052597058		-1.636328247
F		0.455290931		1.554487983		1.618763082
F		2.5585063		0.578317979		3.616643709
F		0.001712179		-1.178670259		2.823270486
