12
-187.38518821
Al		1.278241568		0.054066294		2.446157099
Al		1.276784		1.189243		-0.083083
Al		-0.314706691		0.830665986		-2.324569935
F		-1.650633968		-0.393132664		-2.229273491
F		2.043178282		-0.361942118		0.752879161
F		0.034157684		1.838652416		-3.789595208
F		-0.368996462		1.914290373		-0.759899945
F		2.587876553		2.420946509		-0.320355444
F		1.277976883		0.053255774		-1.636936011
F		0.456088283		1.555349775		1.619077938
F		2.559340104		0.577345531		3.616202949
F		0.000635323		-1.177414339		2.823839726
