12
-187.38518821
Al		1.277885582		0.054481476		2.446345277
Al		1.276784		1.189243		-0.083083
Al		-0.314350705		0.830250804		-2.324758113
F		-1.649018684		-0.395016544		-2.230127357
F		2.041556992		-0.362738834		0.752631673
F		0.032906984		1.840111094		-3.788934074
F		-0.369802946		1.912806321		-0.759213095
F		2.587876553		2.420946509		-0.320355444
F		1.279208623		0.054243848		-1.637847657
F		0.457284311		1.556642463		1.619550222
F		2.56059081		0.575886859		3.615541809
F		-0.000979961		-1.175530459		2.824693586
