12
-187.38518821
Al		1.277826251		0.054550673		2.44637664
Al		1.276784		1.189243		-0.083083
Al		-0.314291374		0.830181607		-2.324789476
F		-1.64874947		-0.395330524		-2.230269668
F		2.041286777		-0.36287162		0.752590425
F		0.032698534		1.840354207		-3.788823885
F		-0.36993736		1.912558979		-0.75909862
F		2.587876553		2.420946509		-0.320355444
F		1.279413913		0.054408527		-1.637999598
F		0.457483649		1.556857911		1.619628936
F		2.560799261		0.575643747		3.615431619
F		-0.001249175		-1.175216479		2.824835896
