12
-187.38518821
Al		1.277648258		0.054758264		2.446470729
Al		1.276784		1.189243		-0.083083
Al		-0.314113381		0.829974016		-2.324883565
F		-1.647941828		-0.396272464		-2.230696601
F		2.040476132		-0.363269978		0.752466681
F		0.032073184		1.841083546		-3.788493318
F		-0.370340602		1.911816953		-0.758755195
F		2.587876553		2.420946509		-0.320355444
F		1.280029783		0.054902564		-1.638455421
F		0.458081663		1.557504255		1.619865078
F		2.561424614		0.574914411		3.615101049
F		-0.002056817		-1.174274539		2.825262826
