12
-187.38518821
Al		1.277410934		0.055035052		2.446596181
Al		1.276784		1.189243		-0.083083
Al		-0.313876057		0.829697228		-2.325009017
F		-1.646864972		-0.397528384		-2.231265845
F		2.039395272		-0.363801122		0.752301689
F		0.031239384		1.842055998		-3.788052562
F		-0.370878258		1.910827585		-0.758297295
F		2.587876553		2.420946509		-0.320355444
F		1.280850943		0.05556128		-1.639063185
F		0.458879015		1.558366047		1.620179934
F		2.562258418		0.573941963		3.614660289
F		-0.003133673		-1.173018619		2.825832066
