12
-187.38518821
Al		1.277232941		0.055242643		2.44669027
Al		1.276784		1.189243		-0.083083
Al		-0.313698064		0.829489637		-2.325103106
F		-1.64605733		-0.398470324		-2.231692778
F		2.038584627		-0.36419948		0.752177945
F		0.030614034		1.842785337		-3.787721995
F		-0.3712815		1.910085559		-0.75795387
F		2.587876553		2.420946509		-0.320355444
F		1.281466813		0.056055317		-1.639519008
F		0.459477029		1.559012391		1.620416076
F		2.562883771		0.573212627		3.614329719
F		-0.003941315		-1.172076679		2.826258996
