12
-187.38518821
Al		1.276758293		0.055796219		2.446941174
Al		1.276784		1.189243		-0.083083
Al		-0.313223416		0.828936061		-2.32535401
F		-1.643903618		-0.400982164		-2.232831266
F		2.036422907		-0.365261768		0.751847961
F		0.028946434		1.844730241		-3.786840483
F		-0.372356812		1.908106823		-0.75703807
F		2.587876553		2.420946509		-0.320355444
F		1.283109133		0.057372749		-1.640734536
F		0.461071733		1.560735975		1.621045788
F		2.564551379		0.571267731		3.613448199
F		-0.006095027		-1.169564839		2.827397476
