12
-187.38518821
Al		1.282691393		0.048876519		2.443804874
Al		1.276784		1.189243		-0.083083
Al		-0.319156516		0.835855761		-2.32221771
F		-1.670825018		-0.369584164		-2.218600166
F		2.063444407		-0.351983168		0.755972761
F		0.049791434		1.820418941		-3.797859383
F		-0.358915412		1.932841023		-0.76848557
F		2.587876553		2.420946509		-0.320355444
F		1.262580133		0.040904849		-1.625540436
F		0.441137933		1.539191175		1.613174388
F		2.543706279		0.595578931		3.624467199
F		0.020826373		-1.200962839		2.813166476
