12
-187.38518821
Al		1.283225372		0.048253746		2.443522607
Al		1.276784		1.189243		-0.083083
Al		-0.319690495		0.836478534		-2.321935443
F		-1.673247944		-0.366758344		-2.217319367
F		2.065876342		-0.350788094		0.756343993
F		0.051667484		1.818230924		-3.798851084
F		-0.357705686		1.935067101		-0.769515845
F		2.587876553		2.420946509		-0.320355444
F		1.260732523		0.039422738		-1.624172967
F		0.439343891		1.537252143		1.612465962
F		2.54183022		0.597766939		3.625458909
F		0.023249299		-1.203788659		2.811885686
