12
-187.38518821
Al		1.283284703		0.048184549		2.443491244
Al		1.276784		1.189243		-0.083083
Al		-0.319749826		0.836547731		-2.32190408
F		-1.673517158		-0.366444364		-2.217177056
F		2.066146557		-0.350655308		0.756385241
F		0.051875934		1.817987811		-3.798961273
F		-0.357571272		1.935314443		-0.76963032
F		2.587876553		2.420946509		-0.320355444
F		1.260527233		0.039258059		-1.624021026
F		0.439144553		1.537036695		1.612387248
F		2.541621769		0.598010051		3.625569099
F		0.023518513		-1.204102639		2.811743376
