12
-187.38518821
Al		1.283403365		0.048046155		2.443428518
Al		1.276784		1.189243		-0.083083
Al		-0.319868488		0.836686125		-2.321841354
F		-1.674055586		-0.365816404		-2.216892434
F		2.066686987		-0.350389736		0.756467737
F		0.052292834		1.817501585		-3.799181651
F		-0.357302444		1.935809127		-0.76985927
F		2.587876553		2.420946509		-0.320355444
F		1.260116653		0.038928701		-1.623717144
F		0.438745877		1.536605799		1.61222982
F		2.541204867		0.598496275		3.625789479
F		0.024056941		-1.204730599		2.811458756
