12
-187.38518821
Al		1.283462696		0.047976958		2.443397155
Al		1.276784		1.189243		-0.083083
Al		-0.319927819		0.836755322		-2.321809991
F		-1.6743248		-0.365502424		-2.216750123
F		2.066957202		-0.35025695		0.756508985
F		0.052501284		1.817258472		-3.79929184
F		-0.35716803		1.936056469		-0.769973745
F		2.587876553		2.420946509		-0.320355444
F		1.259911363		0.038764022		-1.623565203
F		0.438546539		1.536390351		1.612151106
F		2.540996416		0.598739387		3.625899669
F		0.024326155		-1.205044579		2.811316446
