12
-187.38518821
Al		1.283878013		0.047492579		2.443177614
Al		1.276784		1.189243		-0.083083
Al		-0.320343136		0.837239701		-2.32159045
F		-1.676209298		-0.363304564		-2.215753946
F		2.068848707		-0.349327448		0.756797721
F		0.053960434		1.815556681		-3.800063163
F		-0.356227132		1.937787863		-0.77077507
F		2.587876553		2.420946509		-0.320355444
F		1.258474333		0.037611269		-1.622501616
F		0.437151173		1.534882215		1.611600108
F		2.539537259		0.600441171		3.626670999
F		0.026210653		-1.207242439		2.810320276
