12
-187.38518821
Al		1.284056006		0.047284988		2.443083525
Al		1.276784		1.189243		-0.083083
Al		-0.320521129		0.837447292		-2.321496361
F		-1.67701694		-0.362362624		-2.215327013
F		2.069659352		-0.34892909		0.756921465
F		0.054585784		1.814827342		-3.80039373
F		-0.35582389		1.938529889		-0.771118495
F		2.587876553		2.420946509		-0.320355444
F		1.257858463		0.037117232		-1.622045793
F		0.436553159		1.534235871		1.611363966
F		2.538911906		0.601170507		3.627001569
F		0.027018295		-1.208184379		2.809893346
