12
-187.38518821
Al		1.284233999		0.047077397		2.442989436
Al		1.276784		1.189243		-0.083083
Al		-0.320699122		0.837654883		-2.321402272
F		-1.677824582		-0.361420684		-2.21490008
F		2.070469997		-0.348530732		0.757045209
F		0.055211134		1.814098003		-3.800724297
F		-0.355420648		1.939271915		-0.77146192
F		2.587876553		2.420946509		-0.320355444
F		1.257242593		0.036623195		-1.62158997
F		0.435955145		1.533589527		1.611127824
F		2.538286553		0.601899843		3.627332139
F		0.027825937		-1.209126319		2.809466416
