12
-187.38518821
Al		1.284411992		0.046869806		2.442895347
Al		1.276784		1.189243		-0.083083
Al		-0.320877115		0.837862474		-2.321308183
F		-1.678632224		-0.360478744		-2.214473147
F		2.071280642		-0.348132374		0.757168953
F		0.055836484		1.813368664		-3.801054864
F		-0.355017406		1.940013941		-0.771805345
F		2.587876553		2.420946509		-0.320355444
F		1.256626723		0.036129158		-1.621134147
F		0.435357131		1.532943183		1.610891682
F		2.5376612		0.602629179		3.627662709
F		0.028633579		-1.210068259		2.809039486
