12
-187.38518821
Al		1.284530654		0.046731412		2.442832621
Al		1.276784		1.189243		-0.083083
Al		-0.320995777		0.838000868		-2.321245457
F		-1.679170652		-0.359850784		-2.214188525
F		2.071821072		-0.347866802		0.757251449
F		0.056253384		1.812882438		-3.801275242
F		-0.354748578		1.940508625		-0.772034295
F		2.587876553		2.420946509		-0.320355444
F		1.256216143		0.0357998		-1.620830265
F		0.434958455		1.532512287		1.610734254
F		2.537244298		0.603115403		3.627883089
F		0.029172007		-1.210696219		2.808754866
