12
-187.38518821
Al		1.284589985		0.046662215		2.442801258
Al		1.276784		1.189243		-0.083083
Al		-0.321055108		0.838070065		-2.321214094
F		-1.679439866		-0.359536804		-2.214046214
F		2.072091287		-0.347734016		0.757292697
F		0.056461834		1.812639325		-3.801385431
F		-0.354614164		1.940755967		-0.77214877
F		2.587876553		2.420946509		-0.320355444
F		1.256010853		0.035635121		-1.620678324
F		0.434759117		1.532296839		1.61065554
F		2.537035847		0.603358515		3.627993279
F		0.029441221		-1.211010199		2.808612556
