12
-187.38518821
Al		1.28488664		0.04631623		2.442644443
Al		1.276784		1.189243		-0.083083
Al		-0.321351763		0.83841605		-2.321057279
F		-1.680785936		-0.357966904		-2.213334659
F		2.073442362		-0.347070086		0.757498937
F		0.057504084		1.81142376		-3.801936376
F		-0.353942094		1.941992677		-0.772721145
F		2.587876553		2.420946509		-0.320355444
F		1.254984403		0.034811726		-1.619918619
F		0.433762427		1.531219599		1.61026197
F		2.535993592		0.604574075		3.628544229
F		0.030787291		-1.212580099		2.807901006
