12
-187.38518821
Al		1.282869386		0.048668928		2.443710785
Al		1.276784		1.189243		-0.083083
Al		-0.319334509		0.836063352		-2.322123621
F		-1.67163266		-0.368642224		-2.218173233
F		2.064255052		-0.35158481		0.756096505
F		0.050416784		1.819689602		-3.79818995
F		-0.35851217		1.933583049		-0.768828995
F		2.587876553		2.420946509		-0.320355444
F		1.261964263		0.040410812		-1.625084613
F		0.440539919		1.538544831		1.612938246
F		2.543080926		0.596308267		3.624797769
F		0.021634015		-1.201904779		2.812739546
