12
-187.38518821
Al		1.285183295		0.045970245		2.442487628
Al		1.276784		1.189243		-0.083083
Al		-0.321648418		0.838762035		-2.320900464
F		-1.682132006		-0.356397004		-2.212623104
F		2.074793437		-0.346406156		0.757705177
F		0.058546334		1.810208195		-3.802487321
F		-0.353270024		1.943229387		-0.77329352
F		2.587876553		2.420946509		-0.320355444
F		1.253957953		0.033988331		-1.619158914
F		0.432765737		1.530142359		1.6098684
F		2.534951337		0.605789635		3.629095179
F		0.032133361		-1.214149999		2.807189456
