12
-187.38518821
Al		1.285420619		0.045693457		2.442362176
Al		1.276784		1.189243		-0.083083
Al		-0.321885742		0.839038823		-2.320775012
F		-1.683208862		-0.355141084		-2.21205386
F		2.075874297		-0.345875012		0.757870169
F		0.059380134		1.809235743		-3.802928077
F		-0.352732368		1.944218755		-0.77375142
F		2.587876553		2.420946509		-0.320355444
F		1.253136793		0.033329615		-1.61855115
F		0.431968385		1.529280567		1.609553544
F		2.534117533		0.606762083		3.629535939
F		0.033210217		-1.215405919		2.806620216
