12
-187.38518821
Al		1.285539281		0.045555063		2.44229945
Al		1.276784		1.189243		-0.083083
Al		-0.322004404		0.839177217		-2.320712286
F		-1.68374729		-0.354513124		-2.211769238
F		2.076414727		-0.34560944		0.757952665
F		0.059797034		1.808749517		-3.803148455
F		-0.35246354		1.944713439		-0.77398037
F		2.587876553		2.420946509		-0.320355444
F		1.252726213		0.033000257		-1.618247268
F		0.431569709		1.528849671		1.609396116
F		2.533700631		0.607248307		3.629756319
F		0.033748645		-1.216033879		2.806335596
