12
-187.38518821
Al		1.282928717		0.048599731		2.443679422
Al		1.276784		1.189243		-0.083083
Al		-0.31939384		0.836132549		-2.322092258
F		-1.671901874		-0.368328244		-2.218030922
F		2.064525267		-0.351452024		0.756137753
F		0.050625234		1.819446489		-3.798300139
F		-0.358377756		1.933830391		-0.76894347
F		2.587876553		2.420946509		-0.320355444
F		1.261758973		0.040246133		-1.624932672
F		0.440340581		1.538329383		1.612859532
F		2.542872475		0.596551379		3.624907959
F		0.021903229		-1.202218759		2.812597236
