12
-187.38518821
Al		1.286013929		0.045001487		2.442048546
Al		1.276784		1.189243		-0.083083
Al		-0.322479052		0.839730793		-2.320461382
F		-1.685901002		-0.352001284		-2.21063075
F		2.078576447		-0.344547152		0.758282649
F		0.061464634		1.806804613		-3.804029967
F		-0.351388228		1.946692175		-0.77489617
F		2.587876553		2.420946509		-0.320355444
F		1.251083893		0.031682825		-1.61703174
F		0.429975005		1.527126087		1.608766404
F		2.532033023		0.609193203		3.630637839
F		0.035902357		-1.218545719		2.805197116
