12
-187.38518821
Al		1.286547908		0.044378714		2.441766279
Al		1.276784		1.189243		-0.083083
Al		-0.323013031		0.840353566		-2.320179115
F		-1.688323928		-0.349175464		-2.209349951
F		2.081008382		-0.343352078		0.758653881
F		0.063340684		1.804616596		-3.805021668
F		-0.350178502		1.948918253		-0.775926445
F		2.587876553		2.420946509		-0.320355444
F		1.249236283		0.030200714		-1.615664271
F		0.428180963		1.525187055		1.608057978
F		2.530156964		0.611381211		3.631629549
F		0.038325283		-1.221371539		2.803916326
