12
-187.38518821
Al		1.28666657		0.04424032		2.441703553
Al		1.276784		1.189243		-0.083083
Al		-0.323131693		0.84049196		-2.320116389
F		-1.688862356		-0.348547504		-2.209065329
F		2.081548812		-0.343086506		0.758736377
F		0.063757584		1.80413037		-3.805242046
F		-0.349909674		1.949412937		-0.776155395
F		2.587876553		2.420946509		-0.320355444
F		1.248825703		0.029871356		-1.615360389
F		0.427782287		1.524756159		1.60790055
F		2.529740062		0.611867435		3.631849929
F		0.038863711		-1.221999499		2.803631706
