12
-187.38518821
Al		1.283047379		0.048461337		2.443616696
Al		1.276784		1.189243		-0.083083
Al		-0.319512502		0.836270943		-2.322029532
F		-1.672440302		-0.367700284		-2.2177463
F		2.065065697		-0.351186452		0.756220249
F		0.051042134		1.818960263		-3.798520517
F		-0.358108928		1.934325075		-0.76917242
F		2.587876553		2.420946509		-0.320355444
F		1.261348393		0.039916775		-1.62462879
F		0.439941905		1.537898487		1.612702104
F		2.542455573		0.597037603		3.625128339
F		0.022441657		-1.202846719		2.812312616
