12
-187.38518821
Al		1.286785232		0.044101926		2.441640827
Al		1.276784		1.189243		-0.083083
Al		-0.323250355		0.840630354		-2.320053663
F		-1.689400784		-0.347919544		-2.208780707
F		2.082089242		-0.342820934		0.758818873
F		0.064174484		1.803644144		-3.805462424
F		-0.349640846		1.949907621		-0.776384345
F		2.587876553		2.420946509		-0.320355444
F		1.248415123		0.029541998		-1.615056507
F		0.427383611		1.524325263		1.607743122
F		2.52932316		0.612353659		3.632070309
F		0.039402139		-1.222627459		2.803347086
