12
-187.38518821
Al		1.286903894		0.043963532		2.441578101
Al		1.276784		1.189243		-0.083083
Al		-0.323369017		0.840768748		-2.319990937
F		-1.689939212		-0.347291584		-2.208496085
F		2.082629672		-0.342555362		0.758901369
F		0.064591384		1.803157918		-3.805682802
F		-0.349372018		1.950402305		-0.776613295
F		2.587876553		2.420946509		-0.320355444
F		1.248004543		0.02921264		-1.614752625
F		0.426984935		1.523894367		1.607585694
F		2.528906258		0.612839883		3.632290689
F		0.039940567		-1.223255419		2.803062466
