12
-187.38518821
Al		1.286963225		0.043894335		2.441546738
Al		1.276784		1.189243		-0.083083
Al		-0.323428348		0.840837945		-2.319959574
F		-1.690208426		-0.346977604		-2.208353774
F		2.082899887		-0.342422576		0.758942617
F		0.064799834		1.802914805		-3.805792991
F		-0.349237604		1.950649647		-0.77672777
F		2.587876553		2.420946509		-0.320355444
F		1.247799253		0.029047961		-1.614600684
F		0.426785597		1.523678919		1.60750698
F		2.528697807		0.613082995		3.632400879
F		0.040209781		-1.223569399		2.802920156
