12
-187.38518821
Al		1.287022556		0.043825138		2.441515375
Al		1.276784		1.189243		-0.083083
Al		-0.323487679		0.840907142		-2.319928211
F		-1.69047764		-0.346663624		-2.208211463
F		2.083170102		-0.34228979		0.758983865
F		0.065008284		1.802671692		-3.80590318
F		-0.34910319		1.950896989		-0.776842245
F		2.587876553		2.420946509		-0.320355444
F		1.247593963		0.028883282		-1.614448743
F		0.426586259		1.523463471		1.607428266
F		2.528489356		0.613326107		3.632511069
F		0.040478995		-1.223883379		2.802777846
