12
-187.38518821
Al		1.287200549		0.043617547		2.441421286
Al		1.276784		1.189243		-0.083083
Al		-0.323665672		0.841114733		-2.319834122
F		-1.691285282		-0.345721684		-2.20778453
F		2.083980747		-0.341891432		0.759107609
F		0.065633634		1.801942353		-3.806233747
F		-0.348699948		1.951639015		-0.77718567
F		2.587876553		2.420946509		-0.320355444
F		1.246978093		0.028389245		-1.61399292
F		0.425988245		1.522817127		1.607192124
F		2.527864003		0.614055443		3.632841639
F		0.041286637		-1.224825319		2.802350916
