12
-187.38518821
Al		1.287319211		0.043479153		2.44135856
Al		1.276784		1.189243		-0.083083
Al		-0.323784334		0.841253127		-2.319771396
F		-1.69182371		-0.345093724		-2.207499908
F		2.084521177		-0.34162586		0.759190105
F		0.066050534		1.801456127		-3.806454125
F		-0.34843112		1.952133699		-0.77741462
F		2.587876553		2.420946509		-0.320355444
F		1.246567513		0.028059887		-1.613689038
F		0.425589569		1.522386231		1.607034696
F		2.527447101		0.614541667		3.633062019
F		0.041825065		-1.225453279		2.802066296
