12
-187.38518821
Al		1.28310671		0.04839214		2.443585333
Al		1.276784		1.189243		-0.083083
Al		-0.319571833		0.83634014		-2.321998169
F		-1.672709516		-0.367386304		-2.217603989
F		2.065335912		-0.351053666		0.756261497
F		0.051250584		1.81871715		-3.798630706
F		-0.357974514		1.934572417		-0.769286895
F		2.587876553		2.420946509		-0.320355444
F		1.261143103		0.039752096		-1.624476849
F		0.439742567		1.537683039		1.61262339
F		2.542247122		0.597280715		3.625238529
F		0.022710871		-1.203160699		2.812170306
