12
-187.38518821
Al		1.287793859		0.042925577		2.441107656
Al		1.276784		1.189243		-0.083083
Al		-0.324258982		0.841806703		-2.319520492
F		-1.693977422		-0.342581884		-2.20636142
F		2.086682897		-0.340563572		0.759520089
F		0.067718134		1.799511223		-3.807335637
F		-0.347355808		1.954112435		-0.77833042
F		2.587876553		2.420946509		-0.320355444
F		1.244925193		0.026742455		-1.61247351
F		0.423994865		1.520662647		1.606404984
F		2.525779493		0.616486563		3.633943539
F		0.043978777		-1.227965119		2.800927816
