12
Properties=species:S:1:pos:R:3:forces:R:3 energy=-180.72246066 pbc="F F F"
Al    -2.0171352610000004    2.76491322    -0.988520491    -6.909073    -14.00219    11.757816
Al    -0.44962115499999994    0.305571406    -2.335484774    -2.137187    -2.831278    1.885601
Al    -2.042843376    -0.521336118    -0.668645837    -0.531051    3.775084    0.12492
F    -0.924207141    3.5015924359999997    -0.262642457    1.021034    1.021373    -0.013498
F    -2.8237348470000003    3.028594393    -2.0464839919999998    -0.195987    0.610535    -1.267897
F    -1.47053288    -1.881886027    -1.665349761    0.733368    0.38248    -0.629223
F    -2.373344362    2.033420883    -0.23086943799999998    4.900919    9.70911    -8.883699
F    -3.357279963    -1.438698632    0.714637453    -0.026118    -0.078824    0.091432
F    0.654359798    -0.521100741    -3.682995104    0.089532    0.775337    0.008293
F    -0.207952325    1.5893967139999998    -2.471883431    1.586606    1.002    -1.253805
F    -2.4408027569999997    0.484482551    -2.264735228    0.538266    -0.287232    -1.038226
F    -0.361972768    0.15892983900000002    -0.45037120799999997    0.929692    -0.076395    -0.781714
