      12
SCF Done            -159.76422281
Al           -2.001804189         2.498085285        -0.899747406
Al           -0.550327170        -0.086089596        -2.326143756
Al           -2.235414386        -0.263489112        -0.478026849
F            -0.746189080         3.688010511        -0.174138373
F            -3.006105770         3.178550466        -2.327816919
F            -1.356211888        -1.670712037        -1.743796754
F            -2.403287280         1.574558910        -0.136687415
F            -3.246594130        -1.315835546         0.601446364
F             0.619885690        -0.503355660        -3.640876200
F            -0.140517293         1.835087722        -2.509041322
F            -2.425258757         0.480401551        -2.336702228
F            -0.269974763         0.165444780        -0.437144188
