      12
SCF Done            -187.33350568
Al            1.108552180        -0.096715583         2.441611473
Al            1.301635400         1.173572100        -0.027108900
Al           -0.172264162         0.998627250        -2.381391073
F            -1.592892572        -0.192556953        -2.389237106
F             1.989756153        -0.427692153         0.776580752
F             0.280938439         2.008579790        -3.786141933
F            -0.278419610         2.003622053        -0.772775449
F             2.661977857         2.374220112        -0.153455143
F             1.323938639         0.094860205        -1.628910154
F             0.387395817         1.481067729         1.632715839
F             2.355889769         0.380092776         3.710346837
F            -0.186112025        -1.296643852         2.693241971
