12
-187.38518821
Al		1.282885851		0.048649726		2.443702081
Al		1.276575345		1.189486352		-0.082972702
Al		-0.318843397		0.835490574		-2.322383229
F		-1.670709832		-0.369718503		-2.218661056
F		2.063194423		-0.352072368		0.75566411
F		0.049438383		1.8208307		-3.797672756
F		-0.35914401		1.93252978		-0.768617792
F		2.587949781		2.420861104		-0.320394153
F		1.262963519		0.041035563		-1.625490037
F		0.441400953		1.539265172		1.613476148
F		2.543770129		0.595504465		3.624433447
F		0.02040313		-1.200469218		2.813390207
