12
-187.38518821
Al		1.287454053		0.043321906		2.441287273
Al		1.272819555		1.193866688		-0.080987338
Al		-0.314275213		0.830162754		-2.324798037
F		-1.673482336		-0.366484965		-2.217195478
F		2.063558581		-0.35128782		0.750850856
F		0.046835565		1.823866328		-3.796296872
F		-0.360839322		1.931379562		-0.773058338
F		2.589267885		2.419323814		-0.321090915
F		1.266169247		0.040424193		-1.621847917
F		0.442547229		1.536719054		1.617490976
F		2.541167311		0.598540093		3.625809331
F		0.017630608		-1.19723568		2.814855785
