12
-187.38518821
Al		1.287961631		0.042729926		2.441018961
Al		1.272402245		1.194353392		-0.080766742
Al		-0.313767637		0.829570774		-2.325066349
F		-1.673790392		-0.366125683		-2.217032636
F		2.063599043		-0.351200648		0.75031605
F		0.046546363		1.82420362		-3.796143996
F		-0.36102769		1.93125176		-0.773551732
F		2.589414341		2.419153004		-0.321168333
F		1.266525439		0.040356263		-1.621443237
F		0.442674593		1.536436152		1.617937068
F		2.540878109		0.598877385		3.625962207
F		0.01732255		-1.196876398		2.815018627
