12
-187.38518821
Al		1.289738154		0.040657996		2.440079869
Al		1.27094166		1.196056856		-0.079994656
Al		-0.311991121		0.827498844		-2.326005441
F		-1.674868588		-0.364868196		-2.216462689
F		2.06374066		-0.350895546		0.748444229
F		0.045534156		1.825384142		-3.79560893
F		-0.361686978		1.930804453		-0.775278611
F		2.589926937		2.418555169		-0.321439296
F		1.267772111		0.040118508		-1.620026857
F		0.443120367		1.535445995		1.61949839
F		2.539865902		0.600057907		3.626497273
F		0.016244347		-1.195618911		2.815588574
