12
-187.38518821
Al		1.290499521		0.039770026		2.439677401
Al		1.270315695		1.196786912		-0.079663762
Al		-0.311229757		0.826610874		-2.326407909
F		-1.675330672		-0.364329273		-2.216218426
F		2.063801353		-0.350764788		0.74764202
F		0.045100353		1.82589008		-3.795379616
F		-0.36196953		1.93061275		-0.776018702
F		2.590146621		2.418298954		-0.321555423
F		1.268306399		0.040016613		-1.619419837
F		0.443311413		1.535021642		1.620167528
F		2.539432099		0.600563845		3.626726587
F		0.01578226		-1.195079988		2.815832837
