12
-187.38518821
Al		1.291260888		0.038882056		2.439274933
Al		1.26968973		1.197516968		-0.079332868
Al		-0.310468393		0.825722904		-2.326810377
F		-1.675792756		-0.36379035		-2.215974163
F		2.063862046		-0.35063403		0.746839811
F		0.04466655		1.826396018		-3.795150302
F		-0.362252082		1.930421047		-0.776758793
F		2.590366305		2.418042739		-0.32167155
F		1.268840687		0.039914718		-1.618812817
F		0.443502459		1.534597289		1.620836666
F		2.538998296		0.601069783		3.626955901
F		0.015320173		-1.194541065		2.8160771
