12
-187.38518821
Al		1.2932912		0.036514136		2.438201685
Al		1.26802049		1.199463784		-0.078450484
Al		-0.308438089		0.823354984		-2.327883625
F		-1.67702498		-0.362353222		-2.215322795
F		2.064023894		-0.350285342		0.744700587
F		0.043509742		1.827745186		-3.794538798
F		-0.363005554		1.929909839		-0.778732369
F		2.590952129		2.417359499		-0.321981222
F		1.270265455		0.039642998		-1.617194097
F		0.444011915		1.533465681		1.622621034
F		2.537841488		0.602418951		3.627567405
F		0.014087941		-1.193103937		2.816728468
