12
-187.38518821
Al		1.293544989		0.036218146		2.438067529
Al		1.267811835		1.199707136		-0.078340186
Al		-0.308184301		0.823058994		-2.328017781
F		-1.677179008		-0.362173581		-2.215241374
F		2.064044125		-0.350241756		0.744433184
F		0.043365141		1.827913832		-3.79446236
F		-0.363099738		1.929845938		-0.778979066
F		2.591025357		2.417274094		-0.322019931
F		1.270443551		0.039609033		-1.616991757
F		0.444075597		1.53332423		1.62284408
F		2.537696887		0.602587597		3.627643843
F		0.013933912		-1.192924296		2.816809889
