12
-187.38518821
Al		1.295321512		0.034146216		2.437128437
Al		1.26635125		1.2014106		-0.0775681
Al		-0.306407785		0.820987064		-2.328956873
F		-1.678257204		-0.360916094		-2.214671427
F		2.064185742		-0.349936654		0.742561363
F		0.042352934		1.829094354		-3.793927294
F		-0.363759026		1.929398631		-0.780705945
F		2.591537953		2.416676259		-0.322290894
F		1.271690223		0.039371278		-1.615575377
F		0.444521371		1.532334073		1.624405402
F		2.53668468		0.603768119		3.628178909
F		0.012855709		-1.191666809		2.817379836
