12
-187.38518821
Al		1.29582909		0.033554236		2.436860125
Al		1.26593394		1.201897304		-0.077347504
Al		-0.305900209		0.820395084		-2.329225185
F		-1.67856526		-0.360556812		-2.214508585
F		2.064226204		-0.349849482		0.742026557
F		0.042063732		1.829431646		-3.793774418
F		-0.363947394		1.929270829		-0.781199339
F		2.591684409		2.416505449		-0.322368312
F		1.272046415		0.039303348		-1.615170697
F		0.444648735		1.532051171		1.624851494
F		2.536395478		0.604105411		3.628331785
F		0.012547651		-1.191307527		2.817542678
