12
-187.38518821
Al		1.296082879		0.033258246		2.436725969
Al		1.265725285		1.202140656		-0.077237206
Al		-0.305646421		0.820099094		-2.329359341
F		-1.678719288		-0.360377171		-2.214427164
F		2.064246435		-0.349805896		0.741759154
F		0.041919131		1.829600292		-3.79369798
F		-0.364041578		1.929206928		-0.781446036
F		2.591757637		2.416420044		-0.322407021
F		1.272224511		0.039269383		-1.614968357
F		0.444712417		1.53190972		1.62507454
F		2.536250877		0.604274057		3.628408223
F		0.012393622		-1.191127886		2.817624099
