12
-187.38518821
Al		1.296844246		0.032370276		2.436323501
Al		1.26509932		1.202870712		-0.076906312
Al		-0.304885057		0.819211124		-2.329761809
F		-1.679181372		-0.359838248		-2.214182901
F		2.064307128		-0.349675138		0.740956945
F		0.041485328		1.83010623		-3.793468666
F		-0.36432413		1.929015225		-0.782186127
F		2.591977321		2.416163829		-0.322523148
F		1.272758799		0.039167488		-1.614361337
F		0.444903463		1.531485367		1.625743678
F		2.535817074		0.604779995		3.628637537
F		0.011931535		-1.190588963		2.817868362
