12
-187.38518821
Al		1.297351824		0.031778296		2.436055189
Al		1.26468201		1.203357416		-0.076685716
Al		-0.304377481		0.818619144		-2.330030121
F		-1.679489428		-0.359478966		-2.214020059
F		2.06434759		-0.349587966		0.740422139
F		0.041196126		1.830443522		-3.79331579
F		-0.364512498		1.928887423		-0.782679521
F		2.592123777		2.415993019		-0.322600566
F		1.273114991		0.039099558		-1.613956657
F		0.445030827		1.531202465		1.62618977
F		2.535527872		0.605117287		3.628790413
F		0.011623477		-1.190229681		2.818031204
