12
-187.38518821
Al		1.297859402		0.031186316		2.435786877
Al		1.2642647		1.20384412		-0.07646512
Al		-0.303869905		0.818027164		-2.330298433
F		-1.679797484		-0.359119684		-2.213857217
F		2.064388052		-0.349500794		0.739887333
F		0.040906924		1.830780814		-3.793162914
F		-0.364700866		1.928759621		-0.783172915
F		2.592270233		2.415822209		-0.322677984
F		1.273471183		0.039031628		-1.613551977
F		0.445158191		1.530919563		1.626635862
F		2.53523867		0.605454579		3.628943289
F		0.011315419		-1.189870399		2.818194046
