12
-187.38518821
Al		1.300651081		0.027930426		2.434311161
Al		1.261969495		1.206520992		-0.075251842
Al		-0.301078237		0.814771274		-2.331774149
F		-1.681491792		-0.357143633		-2.212961586
F		2.064610593		-0.349021348		0.7369459
F		0.039316313		1.83263592		-3.792322096
F		-0.36573689		1.92805671		-0.785886582
F		2.593075741		2.414882754		-0.323103783
F		1.275430239		0.038658013		-1.611326237
F		0.445858693		1.529363602		1.629089368
F		2.533648059		0.607309685		3.629784107
F		0.0096211		-1.187894348		2.819089677
