12
-187.38518821
Al		1.301412448		0.027042456		2.433908693
Al		1.26134353		1.207251048		-0.074920948
Al		-0.300316873		0.813883304		-2.332176617
F		-1.681953876		-0.35660471		-2.212717323
F		2.064671286		-0.34889059		0.736143691
F		0.03888251		1.833141858		-3.792092782
F		-0.366019442		1.927865007		-0.786626673
F		2.593295425		2.414626539		-0.32321991
F		1.275964527		0.038556118		-1.610719217
F		0.446049739		1.528939249		1.629758506
F		2.533214256		0.607815623		3.630013421
F		0.009159013		-1.187355425		2.81933394
