12
-187.38518821
Al		1.301666237		0.026746466		2.433774537
Al		1.261134875		1.2074944		-0.07481065
Al		-0.300063085		0.813587314		-2.332310773
F		-1.682107904		-0.356425069		-2.212635902
F		2.064691517		-0.348847004		0.735876288
F		0.038737909		1.833310504		-3.792016344
F		-0.366113626		1.927801106		-0.78687337
F		2.593368653		2.414541134		-0.323258619
F		1.276142623		0.038522153		-1.610516877
F		0.446113421		1.528797798		1.629981552
F		2.533069655		0.607984269		3.630089859
F		0.009004984		-1.187175784		2.819415361
