12
-187.38518821
Al		1.302427604		0.025858496		2.433372069
Al		1.26050891		1.208224456		-0.074479756
Al		-0.299301721		0.812699344		-2.332713241
F		-1.682569988		-0.355886146		-2.212391639
F		2.06475221		-0.348716246		0.735074079
F		0.038304106		1.833816442		-3.79178703
F		-0.366396178		1.927609403		-0.787613461
F		2.593588337		2.414284919		-0.323374746
F		1.276676911		0.038420258		-1.609909857
F		0.446304467		1.528373445		1.63065069
F		2.532635852		0.608490207		3.630319173
F		0.008542897		-1.186636861		2.819659624
