12
-187.38518821
Al		1.30344276		0.024674536		2.432835445
Al		1.25967429		1.209197864		-0.074038564
Al		-0.298286569		0.811515384		-2.333249865
F		-1.6831861		-0.355167582		-2.212065955
F		2.064833134		-0.348541902		0.734004467
F		0.037725702		1.834491026		-3.791481278
F		-0.366772914		1.927353799		-0.788600249
F		2.593881249		2.413943299		-0.323529582
F		1.277389295		0.038284398		-1.609100497
F		0.446559195		1.527807641		1.631542874
F		2.532057448		0.609164791		3.630624925
F		0.007926781		-1.185918297		2.819985308
