12
-187.38518821
Al		1.304204127		0.023786566		2.432432977
Al		1.259048325		1.20992792		-0.07370767
Al		-0.297525205		0.810627414		-2.333652333
F		-1.683648184		-0.354628659		-2.211821692
F		2.064893827		-0.348411144		0.733202258
F		0.037291899		1.834996964		-3.791251964
F		-0.367055466		1.927162096		-0.78934034
F		2.594100933		2.413687084		-0.323645709
F		1.277923583		0.038182503		-1.608493477
F		0.446750241		1.527383288		1.632212012
F		2.531623645		0.609670729		3.630854239
F		0.007464694		-1.185379374		2.820229571
