12
-187.38518821
Al		1.305473072		0.022306616		2.431762197
Al		1.25800505		1.21114468		-0.07315618
Al		-0.296256265		0.809147464		-2.334323113
F		-1.684418324		-0.353730454		-2.211414587
F		2.064994982		-0.348193214		0.731865243
F		0.036568894		1.835840194		-3.790869774
F		-0.367526386		1.926842591		-0.790573825
F		2.594467073		2.413260059		-0.323839254
F		1.278814063		0.038012678		-1.607481777
F		0.447068651		1.526676033		1.633327242
F		2.53090064		0.610513959		3.631236429
F		0.006694549		-1.184481169		2.820636676
