12
-187.38518821
Al		1.306995806		0.020530676		2.430957261
Al		1.25675312		1.212604792		-0.072494392
Al		-0.294733537		0.807371524		-2.335128049
F		-1.685342492		-0.352652608		-2.210926061
F		2.065116368		-0.347931698		0.730260825
F		0.035701288		1.83685207		-3.790411146
F		-0.36809149		1.926459185		-0.792054007
F		2.594906441		2.412747629		-0.324071508
F		1.279882639		0.037808888		-1.606267737
F		0.447450743		1.525827327		1.634665518
F		2.530033034		0.611525835		3.631695057
F		0.005770375		-1.183403323		2.821125202
