12
-187.38518821
Al		1.307757173		0.019642706		2.430554793
Al		1.256127155		1.213334848		-0.072163498
Al		-0.293972173		0.806483554		-2.335530517
F		-1.685804576		-0.352113685		-2.210681798
F		2.065177061		-0.34780094		0.729458616
F		0.035267485		1.837358008		-3.790181832
F		-0.368374042		1.926267482		-0.792794098
F		2.595126125		2.412491414		-0.324187635
F		1.280416927		0.037706993		-1.605660717
F		0.447641789		1.525402974		1.635334656
F		2.529599231		0.612031773		3.631924371
F		0.005308288		-1.1828644		2.821369465
