12
-187.38518821
Al		1.278825227		0.053385566		2.445848577
Al		1.279913825		1.18559272		-0.08473747
Al		-0.322904005		0.840226414		-2.320236733
F		-1.668245384		-0.372592759		-2.219963792
F		2.062870727		-0.352769744		0.759942558
F		0.051751999		1.818132364		-3.798895764
F		-0.357637066		1.933552196		-0.76467064
F		2.586778133		2.422227584		-0.319774809
F		1.260113983		0.041579003		-1.628727477
F		0.440382041		1.541528388		1.609907412
F		2.546083745		0.592806129		3.623210439
F		0.022867594		-1.203343474		2.812087471
