12
-187.38518821
Al		1.277810071		0.054569526		2.446385201
Al		1.280748445		1.184619312		-0.085178662
Al		-0.323919157		0.841410374		-2.319700109
F		-1.667629272		-0.373311323		-2.220289476
F		2.062789803		-0.352944088		0.76101217
F		0.052330403		1.81745778		-3.799201516
F		-0.35726033		1.9338078		-0.763683852
F		2.586485221		2.422569204		-0.319619973
F		1.259401599		0.041714863		-1.629536837
F		0.440127313		1.542094192		1.609015228
F		2.546662149		0.592131545		3.622904687
F		0.02348371		-1.204062038		2.811761787
