12
-187.38518821
Al		1.27552597		0.057233436		2.447592605
Al		1.28262634		1.182429144		-0.086171344
Al		-0.326203249		0.844074284		-2.318492705
F		-1.66624302		-0.374928092		-2.221022265
F		2.062607724		-0.353336362		0.763418797
F		0.053631812		1.815939966		-3.799889458
F		-0.356412674		1.934382909		-0.761463579
F		2.585826169		2.423337849		-0.319271592
F		1.257798735		0.042020548		-1.631357897
F		0.439554175		1.543367251		1.607007814
F		2.547963558		0.590613731		3.622216745
F		0.024869971		-1.205678807		2.811028998
