12
-187.38518821
Al		1.275272181		0.057529426		2.447726761
Al		1.282834995		1.182185792		-0.086281642
Al		-0.326457037		0.844370274		-2.318358549
F		-1.666088992		-0.375107733		-2.221103686
F		2.062587493		-0.353379948		0.7636862
F		0.053776413		1.81577132		-3.799965896
F		-0.35631849		1.93444681		-0.761216882
F		2.585752941		2.423423254		-0.319232883
F		1.257620639		0.042054513		-1.631560237
F		0.439490493		1.543508702		1.606784768
F		2.548108159		0.590445085		3.622140307
F		0.025024		-1.205858448		2.810947577
