12
-187.38518821
Al		1.274510814		0.058417396		2.448129229
Al		1.28346096		1.181455736		-0.086612536
Al		-0.327218401		0.845258244		-2.317956081
F		-1.665626908		-0.375646656		-2.221347949
F		2.0625268		-0.353510706		0.764488409
F		0.054210216		1.815265382		-3.80019521
F		-0.356035938		1.934638513		-0.760476791
F		2.585533257		2.423679469		-0.319116756
F		1.257086351		0.042156408		-1.632167257
F		0.439299447		1.543933055		1.60611563
F		2.548541962		0.589939147		3.621910993
F		0.025486087		-1.206397371		2.810703314
