12
-187.38518821
Al		1.273241869		0.059897346		2.448800009
Al		1.284504235		1.180238976		-0.087164026
Al		-0.328487341		0.846738194		-2.317285301
F		-1.664856768		-0.376544861		-2.221755054
F		2.062425645		-0.353728636		0.765825424
F		0.054933221		1.814422152		-3.8005774
F		-0.355565018		1.934958018		-0.759243306
F		2.585167117		2.424106494		-0.318923211
F		1.256195871		0.042326233		-1.633178957
F		0.438981037		1.54464031		1.6050004
F		2.549264967		0.589095917		3.621528803
F		0.026256232		-1.207295576		2.810296209
