12
-187.38518821
Al		1.27298808		0.060193336		2.448934165
Al		1.28471289		1.179995624		-0.087274324
Al		-0.328741129		0.847034184		-2.317151145
F		-1.66470274		-0.376724502		-2.221836475
F		2.062405414		-0.353772222		0.766092827
F		0.055077822		1.814253506		-3.800653838
F		-0.355470834		1.935021919		-0.758996609
F		2.585093889		2.424191899		-0.318884502
F		1.256017775		0.042360198		-1.633381297
F		0.438917355		1.544781761		1.604777354
F		2.549409568		0.588927271		3.621452365
F		0.026410261		-1.207475217		2.810214788
