12
-187.38518821
Al		1.271972924		0.061377296		2.449470789
Al		1.28554751		1.179022216		-0.087715516
Al		-0.329756281		0.848218144		-2.316614521
F		-1.664086628		-0.377443066		-2.222162159
F		2.06232449		-0.353946566		0.767162439
F		0.055656226		1.813578922		-3.80095959
F		-0.355094098		1.935277523		-0.758009821
F		2.584800977		2.424533519		-0.318729666
F		1.255305391		0.042496058		-1.634190657
F		0.438662627		1.545347565		1.60388517
F		2.549987972		0.588252687		3.621146613
F		0.027026377		-1.208193781		2.809889104
