12
-187.38518821
Al		1.271719135		0.061673286		2.449604945
Al		1.285756165		1.178778864		-0.087825814
Al		-0.330010069		0.848514134		-2.316480365
F		-1.6639326		-0.377622707		-2.22224358
F		2.062304259		-0.353990152		0.767429842
F		0.055800827		1.813410276		-3.801036028
F		-0.354999914		1.935341424		-0.757763124
F		2.584727749		2.424618924		-0.318690957
F		1.255127295		0.042530023		-1.634392997
F		0.438598945		1.545489016		1.603662124
F		2.550132573		0.588084041		3.621070175
F		0.027180406		-1.208373422		2.809807683
