12
-187.38518821
Al		1.271465346		0.061969276		2.449739101
Al		1.28596482		1.178535512		-0.087936112
Al		-0.330263857		0.848810124		-2.316346209
F		-1.663778572		-0.377802348		-2.222325001
F		2.062284028		-0.354033738		0.767697245
F		0.055945428		1.81324163		-3.801112466
F		-0.35490573		1.935405325		-0.757516427
F		2.584654521		2.424704329		-0.318652248
F		1.254949199		0.042563988		-1.634595337
F		0.438535263		1.545630467		1.603439078
F		2.550277174		0.587915395		3.620993737
F		0.027334435		-1.208553063		2.809726262
