12
-187.38518821
Al		1.27045019		0.063153236		2.450275725
Al		1.28679944		1.177562104		-0.088377304
Al		-0.331279009		0.849994084		-2.315809585
F		-1.66316246		-0.378520912		-2.222650685
F		2.062203104		-0.354208082		0.768766857
F		0.056523832		1.812567046		-3.801418218
F		-0.354528994		1.935660929		-0.756529639
F		2.584361609		2.425045949		-0.318497412
F		1.254236815		0.042699848		-1.635404697
F		0.438280535		1.546196271		1.602546894
F		2.550855578		0.587240811		3.620687985
F		0.027950551		-1.209271627		2.809400578
