12
-187.38518821
Al		1.269942612		0.063745216		2.450544037
Al		1.28721675		1.1770754		-0.0885979
Al		-0.331786585		0.850586064		-2.315541273
F		-1.662854404		-0.378880194		-2.222813527
F		2.062162642		-0.354295254		0.769301663
F		0.056813034		1.812229754		-3.801571094
F		-0.354340626		1.935788731		-0.756036245
F		2.584215153		2.425216759		-0.318419994
F		1.253880623		0.042767778		-1.635809377
F		0.438153171		1.546479173		1.602100802
F		2.55114478		0.586903519		3.620535109
F		0.028258609		-1.209630909		2.809237736
