12
-187.38518821
Al		1.268673667		0.065225166		2.451214817
Al		1.288260025		1.17585864		-0.08914939
Al		-0.333055525		0.852066014		-2.314870493
F		-1.662084264		-0.379778399		-2.223220632
F		2.062061487		-0.354513184		0.770638678
F		0.057536039		1.811386524		-3.801953284
F		-0.353869706		1.936108236		-0.75480276
F		2.583849013		2.425643784		-0.318226449
F		1.252990143		0.042937603		-1.636821077
F		0.437834761		1.547186428		1.600985572
F		2.551867785		0.586060289		3.620152919
F		0.029028754		-1.210529114		2.808830631
