12
-187.38518821
Al		1.268419878		0.065521156		2.451348973
Al		1.28846868		1.175615288		-0.089259688
Al		-0.333309313		0.852362004		-2.314736337
F		-1.661930236		-0.37995804		-2.223302053
F		2.062041256		-0.35455677		0.770906081
F		0.05768064		1.811217878		-3.802029722
F		-0.353775522		1.936172137		-0.754556063
F		2.583775785		2.425729189		-0.31818774
F		1.252812047		0.042971568		-1.637023417
F		0.437771079		1.547327879		1.600762526
F		2.552012386		0.585891643		3.620076481
F		0.029182783		-1.210708755		2.80874921
