12
-187.38518821
Al		1.267404722		0.066705116		2.451885597
Al		1.2893033		1.17464188		-0.08970088
Al		-0.334324465		0.853545964		-2.314199713
F		-1.661314124		-0.380676604		-2.223627737
F		2.061960332		-0.354731114		0.771975693
F		0.058259044		1.810543294		-3.802335474
F		-0.353398786		1.936427741		-0.753569275
F		2.583482873		2.426070809		-0.318032904
F		1.252099663		0.043107428		-1.637832777
F		0.437516351		1.547893683		1.599870342
F		2.55259079		0.585217059		3.619770729
F		0.029798899		-1.211427319		2.808423526
