12
-187.38518821
Al		1.266643355		0.067593086		2.452288065
Al		1.289929265		1.173911824		-0.090031774
Al		-0.335085829		0.854433934		-2.313797245
F		-1.66085204		-0.381215527		-2.223872
F		2.061899639		-0.354861872		0.772777902
F		0.058692847		1.810037356		-3.802564788
F		-0.353116234		1.936619444		-0.752829184
F		2.583263189		2.426327024		-0.317916777
F		1.251565375		0.043209323		-1.638439797
F		0.437325305		1.548318036		1.599201204
F		2.553024593		0.584711121		3.619541415
F		0.030260986		-1.211966242		2.808179263
