12
-187.38518821
Al		1.266389566		0.067889076		2.452422221
Al		1.29013792		1.173668472		-0.090142072
Al		-0.335339617		0.854729924		-2.313663089
F		-1.660698012		-0.381395168		-2.223953421
F		2.061879408		-0.354905458		0.773045305
F		0.058837448		1.80986871		-3.802641226
F		-0.35302205		1.936683345		-0.752582487
F		2.583189961		2.426412429		-0.317878068
F		1.251387279		0.043243288		-1.638642137
F		0.437261623		1.548459487		1.598978158
F		2.553169194		0.584542475		3.619464977
F		0.030415015		-1.212145883		2.808097842
