12
-187.38518821
Al		1.264866832		0.069665016		2.453227157
Al		1.29138985		1.17220836		-0.09080386
Al		-0.336862345		0.856505864		-2.312858153
F		-1.659773844		-0.382473014		-2.224441947
F		2.061758022		-0.355166974		0.774649723
F		0.059705054		1.808856834		-3.803099854
F		-0.352456946		1.937066751		-0.751102305
F		2.582750593		2.426924859		-0.317645814
F		1.250318703		0.043447078		-1.639856177
F		0.436879531		1.549308193		1.597639882
F		2.5540368		0.583530599		3.619006349
F		0.031339189		-1.213223729		2.807609316
