12
-187.38518821
Al		1.263851676		0.070848976		2.453763781
Al		1.29222447		1.171234952		-0.091245052
Al		-0.337877497		0.857689824		-2.312321529
F		-1.659157732		-0.383191578		-2.224767631
F		2.061677098		-0.355341318		0.775719335
F		0.060283458		1.80818225		-3.803405606
F		-0.35208021		1.937322355		-0.750115517
F		2.582457681		2.427266479		-0.317490978
F		1.249606319		0.043582938		-1.640665537
F		0.436624803		1.549873997		1.596747698
F		2.554615204		0.582856015		3.618700597
F		0.031955305		-1.213942293		2.807283632
