12
-187.38518821
Al		1.263597887		0.071144966		2.453897937
Al		1.292433125		1.1709916		-0.09135535
Al		-0.338131285		0.857985814		-2.312187373
F		-1.659003704		-0.383371219		-2.224849052
F		2.061656867		-0.355384904		0.775986738
F		0.060428059		1.808013604		-3.803482044
F		-0.351986026		1.937386256		-0.74986882
F		2.582384453		2.427351884		-0.317452269
F		1.249428223		0.043616903		-1.640867877
F		0.436561121		1.550015448		1.596524652
F		2.554759805		0.582687369		3.618624159
F		0.032109334		-1.214121934		2.807202211
