12
-187.38518821
Al		1.262075153		0.072920906		2.454702873
Al		1.293685055		1.169531488		-0.092017138
Al		-0.339654013		0.859761754		-2.311382437
F		-1.658079536		-0.384449065		-2.225337578
F		2.061535481		-0.35564642		0.777591156
F		0.061295665		1.807001728		-3.803940672
F		-0.351420922		1.937769662		-0.748388638
F		2.581945085		2.427864314		-0.317220015
F		1.248359647		0.043820693		-1.642081917
F		0.436179029		1.550864154		1.595186376
F		2.555627411		0.581675493		3.618165531
F		0.033033508		-1.21519978		2.806713685
