12
-187.38518821
Al		1.260806208		0.074400856		2.455373653
Al		1.29472833		1.168314728		-0.092568628
Al		-0.340922953		0.861241704		-2.310711657
F		-1.657309396		-0.38534727		-2.225744683
F		2.061434326		-0.35586435		0.778928171
F		0.06201867		1.806158498		-3.804322862
F		-0.350950002		1.938089167		-0.747155153
F		2.581578945		2.428291339		-0.31702647
F		1.247469167		0.043990518		-1.643093617
F		0.435860619		1.551571409		1.594071146
F		2.556350416		0.580832263		3.617783341
F		0.033803653		-1.216097985		2.80630658
