12
-187.38518821
Al		1.259029685		0.076472786		2.456312745
Al		1.296188915		1.166611264		-0.093340714
Al		-0.342699469		0.863313634		-2.309772565
F		-1.6562312		-0.386604757		-2.22631463
F		2.061292709		-0.356169452		0.780799992
F		0.063030877		1.804977976		-3.804857928
F		-0.350290714		1.938536474		-0.745428274
F		2.581066349		2.428889174		-0.316755507
F		1.246222495		0.044228273		-1.644509997
F		0.435414845		1.552561566		1.592509824
F		2.557362623		0.579651741		3.617248275
F		0.034881856		-1.217355472		2.805736633
