12
Properties=species:S:1:pos:R:3:forces:R:3 energy=-186.38401191 pbc="F F F"
Al    0.11905634300000001    1.504497096    2.285601621    0.290191    -0.396326    0.068928
Al    2.578088396    2.771001525    1.686140675    0.314109    -0.190697    0.053199
Al    1.301382958    2.429309781    -0.6825675529999999    0.281053    -0.18819    0.143576
F    1.035711852    3.138512419    2.7979825320000002    -0.109469    0.054424    0.04488
F    -1.520959447    2.416707443    2.2146027950000002    -0.244753    0.17749    -0.00196
F    -0.10754496000000002    -0.111319318    3.09976926    0.012028    0.154766    -0.052669
F    2.050671869    0.938559485    2.0171182340000002    -0.039456    0.118014    -0.001187
F    3.041934842    1.911247772    -0.099062454    -0.195422    0.116533    -0.062469
F    0.9460112139999999    2.682684852    -2.443916104    -0.039809    0.041828    -0.117694
F    1.575130368    3.964402487    0.4862079650000001    -0.061789    0.125443    -0.019473
F    4.1160294660000005    3.5175825109999996    2.287601168    -0.156372    -0.027555    -0.063896
F    0.0722401    1.508917268    0.295515505    -0.050311    0.014271    0.008764
