      12
SCF Done            -186.38401191
Al           -0.006172657         1.574905096         2.167731621
Al            2.597078396         2.541270525         1.778215675
Al            1.430071958         2.598597781        -0.634543553
F             1.061409852         3.037712419         2.846013532
F            -1.518133447         2.629465443         2.186785795
F            -0.432926960        -0.081668318         2.763231260
F             1.869591869         0.813019485         1.944517234
F             3.025261842         1.801673772        -0.062285454
F             1.147786214         2.979536852        -2.385091104
F             1.807959368         3.959792487         0.643537965
F             4.171043466         3.070193511         2.470196168
F             0.050481100         1.745695268         0.222424505
