12
Properties=species:S:1:pos:R:3:forces:R:3 energy=-186.31115623 pbc="F F F"
Al    0.021535443    1.592731796    2.184589821    -0.21786    0.290549    -0.14593
Al    2.522281996    2.612405925    1.631820875    -0.179563    0.216287    -0.053524
Al    1.311874558    2.508087781    -0.747723953    0.463348    -0.326619    0.288867
F    1.086977252    3.142862519    2.758818532    0.013441    -0.002089    0.056954
F    -1.395553747    2.7964655429999996    2.346396095    -0.056797    -0.147487    -0.042802
F    -0.48801555999999996    -0.056391618    2.79755986    0.078284    -0.152326    0.026714
F    1.767494469    0.8602551850000001    1.808484334    -0.071688    -0.054941    -0.051425
F    2.903583142    1.701049572    -0.091300554    -0.113912    0.074719    0.071296
F    1.083779214    3.307216752    -2.3923682040000003    -0.116563    0.095023    -0.163012
F    1.792314868    3.947313687    0.435860865    0.010365    -0.014818    0.099896
F    3.9020788659999996    3.302764511    2.956461768    0.329847    -0.033047    -0.13966
F    -0.07127119999999999    1.688662468    0.159617705    -0.138903    0.054754    0.052622
