12
-186.39349496
Al		-0.077833083		1.640680003		2.154721791
Al		2.525426134		2.607117249		1.765852391
Al		1.358217152		2.664396587		-0.646987172
F		1.001241847		3.092861167		2.835482912
F		-1.578194787		2.684652115		2.176321691
F		-0.493047698		-0.026249843		2.752762525
F		1.8090003		0.868332688		1.934149594
F		2.964978011		1.857044513		-0.072908014
F		1.087670699		3.034831627		-2.39550721
F		1.747684795		4.015026852		0.632842295
F		4.110993246		3.125534076		2.459786981
F		-0.009497964		1.801068261		0.212434122
