12
-186.39349496
Al		-0.077315313		1.639855882		2.15007933
Al		2.526020476		2.606939265		1.767029735
Al		1.356988364		2.663784614		-0.646532834
F		1.001390068		3.091732846		2.835069353
F		-1.577086923		2.683865452		2.176506236
F		-0.492473741		-0.024950036		2.75290918
F		1.805336823		0.868684543		1.935205555
F		2.964084005		1.857914453		-0.074146396
F		1.088290709		3.035017873		-2.394889792
F		1.746873904		4.014669237		0.630943547
F		4.112201748		3.126132567		2.46046919
F		-0.007649121		1.80195792		0.216885783
