12
-186.39349496
Al		-0.072137613		1.631614672		2.10365472
Al		2.531963896		2.605159425		1.778803175
Al		1.344700484		2.657664884		-0.641989454
F		1.002872278		3.080449636		2.830933763
F		-1.566008283		2.675998822		2.178351686
F		-0.486734171		-0.011951966		2.75437573
F		1.768702053		0.872203093		1.945765165
F		2.955143945		1.866613853		-0.086530216
F		1.094490809		3.036880333		-2.388715612
F		1.738764994		4.011093087		0.611956067
F		4.124286768		3.132117477		2.46729128
F		0.010839309		1.81085451		0.261402393
