12
-186.39349496
Al		-0.077142723		1.639581175		2.148531843
Al		2.52621859		2.606879937		1.767422183
Al		1.356578768		2.663580623		-0.646381388
F		1.001439475		3.091356739		2.8349315
F		-1.576717635		2.683603231		2.176567751
F		-0.492282422		-0.024516767		2.752958065
F		1.804115664		0.868801828		1.935557542
F		2.963786003		1.858204433		-0.07455919
F		1.088497379		3.035079955		-2.394683986
F		1.746603607		4.014550032		0.630310631
F		4.112604582		3.126332064		2.460696593
F		-0.00703284		1.802254473		0.21836967
