12
-186.39349496
Al		-0.076855073		1.63912333		2.145952698
Al		2.52654878		2.606781057		1.768076263
Al		1.355896108		2.663240638		-0.646128978
F		1.00152182		3.090729894		2.834701745
F		-1.576102155		2.683166196		2.176670276
F		-0.491963557		-0.023794652		2.75303954
F		1.802080399		0.868997303		1.936144187
F		2.963289333		1.858687733		-0.07524718
F		1.088841829		3.035183425		-2.394340976
F		1.746153112		4.014351357		0.629255771
F		4.113275972		3.126664559		2.461075598
F		-0.006005705		1.802748728		0.220842815
