12
-186.39349496
Al		-0.077775553		1.640588434		2.154205962
Al		2.525492172		2.607097473		1.765983207
Al		1.35808062		2.66432859		-0.64693669
F		1.001258316		3.092735798		2.835436961
F		-1.578071691		2.684564708		2.176342196
F		-0.492983925		-0.02610542		2.75277882
F		1.808593247		0.868371783		1.934266923
F		2.964878677		1.857141173		-0.073045612
F		1.087739589		3.034852321		-2.395438608
F		1.747594696		4.014987117		0.632631323
F		4.111127524		3.125600575		2.459862782
F		-0.009292537		1.801167112		0.212928751
