12
-186.39349496
Al		-0.076740013		1.638940192		2.14492104
Al		2.526680856		2.606741505		1.768337895
Al		1.355623044		2.663104644		-0.646028014
F		1.001554758		3.090479156		2.834609843
F		-1.575855963		2.682991382		2.176711286
F		-0.491836011		-0.023505806		2.75307213
F		1.801266293		0.869075493		1.936378845
F		2.963090665		1.858881053		-0.075522376
F		1.088979609		3.035224813		-2.394203772
F		1.745972914		4.014271887		0.628833827
F		4.113544528		3.126797557		2.4612272
F		-0.005594851		1.80294643		0.221832073
