12
-186.39349496
Al		-0.076567423		1.638665485		2.143373553
Al		2.52687897		2.606682177		1.768730343
Al		1.355213448		2.662900653		-0.645876568
F		1.001604165		3.090103049		2.83447199
F		-1.575486675		2.682729161		2.176772801
F		-0.491644692		-0.023072537		2.753121015
F		1.800045134		0.869192778		1.936730832
F		2.962792663		1.859171033		-0.07593517
F		1.089186279		3.035286895		-2.393997966
F		1.745702617		4.014152682		0.628200911
F		4.113947362		3.126997054		2.461454603
F		-0.00497857		1.803242983		0.22331596
