12
-186.39349496
Al		-0.076452363		1.638482347		2.142341895
Al		2.527011046		2.606642625		1.768991975
Al		1.354940384		2.662764659		-0.645775604
F		1.001637103		3.089852311		2.834380088
F		-1.575240483		2.682554347		2.176813811
F		-0.491517146		-0.022783691		2.753153605
F		1.799231028		0.869270968		1.93696549
F		2.962593995		1.859364353		-0.076210366
F		1.089324059		3.035328283		-2.393860762
F		1.745522419		4.014073212		0.627778967
F		4.114215918		3.127130052		2.461606205
F		-0.004567716		1.803440685		0.224305218
