12
-186.39349496
Al		-0.076394833		1.638390778		2.141826066
Al		2.527077084		2.606622849		1.769122791
Al		1.354803852		2.662696662		-0.645725122
F		1.001653572		3.089726942		2.834334137
F		-1.575117387		2.68246694		2.176834316
F		-0.491453373		-0.022639268		2.7531699
F		1.798823975		0.869310063		1.937082819
F		2.962494661		1.859461013		-0.076347964
F		1.089392949		3.035348977		-2.39379216
F		1.74543232		4.014033477		0.627567995
F		4.114350196		3.127196551		2.461682006
F		-0.004362289		1.803539536		0.224799847
