12
-186.39349496
Al		-0.076279773		1.63820764		2.140794408
Al		2.52720916		2.606583297		1.769384423
Al		1.354530788		2.662560668		-0.645624158
F		1.00168651		3.089476204		2.834242235
F		-1.574871195		2.682292126		2.176875326
F		-0.491325827		-0.022350422		2.75320249
F		1.798009869		0.869388253		1.937317477
F		2.962295993		1.859654333		-0.07662316
F		1.089530729		3.035390365		-2.393654956
F		1.745252122		4.013954007		0.627146051
F		4.114618752		3.127329549		2.461833608
F		-0.003951435		1.803737238		0.225789105
