12
-186.39349496
Al		-0.076107183		1.637932933		2.139246921
Al		2.527407274		2.606523969		1.769776871
Al		1.354121192		2.662356677		-0.645472712
F		1.001735917		3.089100097		2.834104382
F		-1.574501907		2.682029905		2.176936841
F		-0.491134508		-0.021917153		2.753251375
F		1.79678871		0.869505538		1.937669464
F		2.961997991		1.859944313		-0.077035954
F		1.089737399		3.035452447		-2.39344915
F		1.744981825		4.013834802		0.626513135
F		4.115021586		3.127529046		2.462061011
F		-0.003335154		1.804033791		0.227272992
