12
-186.39349496
Al		-0.076049653		1.637841364		2.138731092
Al		2.527473312		2.606504193		1.769907687
Al		1.35398466		2.66228868		-0.64542223
F		1.001752386		3.088974728		2.834058431
F		-1.574378811		2.681942498		2.176957346
F		-0.491070735		-0.02177273		2.75326767
F		1.796381657		0.869544633		1.937786793
F		2.961898657		1.860040973		-0.077173552
F		1.089806289		3.035473141		-2.393380548
F		1.744891726		4.013795067		0.626302163
F		4.115155864		3.127595545		2.462136812
F		-0.003129727		1.804132642		0.227767621
