12
-186.39349496
Al		-0.075474353		1.636925674		2.133572802
Al		2.528133692		2.606306433		1.771215847
Al		1.35261934		2.66160871		-0.64491741
F		1.001917076		3.087721038		2.833598921
F		-1.573147851		2.681068428		2.177162396
F		-0.490433005		-0.0203285		2.75343062
F		1.792311127		0.869935583		1.938960083
F		2.960905317		1.861007573		-0.078549532
F		1.090495189		3.035680081		-2.392694528
F		1.743990736		4.013397717		0.624192443
F		4.116498644		3.128260535		2.462894822
F		-0.001075457		1.805121152		0.232713911
