12
-186.39349496
Al		-0.075359293		1.636742536		2.132541144
Al		2.528265768		2.606266881		1.771477479
Al		1.352346276		2.661472716		-0.644816446
F		1.001950014		3.0874703		2.833507019
F		-1.572901659		2.680893614		2.177203406
F		-0.490305459		-0.020039654		2.75346321
F		1.791497021		0.870013773		1.939194741
F		2.960706649		1.861200893		-0.078824728
F		1.090632969		3.035721469		-2.392557324
F		1.743810538		4.013318247		0.623770499
F		4.1167672		3.128393533		2.463046424
F		-0.000664603		1.805318854		0.233703169
