12
-186.39349496
Al		-0.075244233		1.636559398		2.131509486
Al		2.528397844		2.606227329		1.771739111
Al		1.352073212		2.661336722		-0.644715482
F		1.001982952		3.087219562		2.833415117
F		-1.572655467		2.6807188		2.177244416
F		-0.490177913		-0.019750808		2.7534958
F		1.790682915		0.870091963		1.939429399
F		2.960507981		1.861394213		-0.079099924
F		1.090770749		3.035762857		-2.39242012
F		1.74363034		4.013238777		0.623348555
F		4.117035756		3.128526531		2.463198026
F		-0.000253749		1.805516556		0.234692427
