12
-186.39349496
Al		-0.075014113		1.636193122		2.12944617
Al		2.528661996		2.606148225		1.772262375
Al		1.351527084		2.661064734		-0.644513554
F		1.002048828		3.086718086		2.833231313
F		-1.572163083		2.680369172		2.177326436
F		-0.489922821		-0.019173116		2.75356098
F		1.789054703		0.870248343		1.939898715
F		2.960110645		1.861780853		-0.079650316
F		1.091046309		3.035845633		-2.392145712
F		1.743269944		4.013079837		0.622504667
F		4.117572868		3.128792527		2.46350123
F		0.000567959		1.80591196		0.236670943
