12
-186.39349496
Al		-0.074956583		1.636101553		2.128930341
Al		2.528728034		2.606128449		1.772393191
Al		1.351390552		2.660996737		-0.644463072
F		1.002065297		3.086592717		2.833185362
F		-1.572039987		2.680281765		2.177346941
F		-0.489859048		-0.019028693		2.753577275
F		1.78864765		0.870287438		1.940016044
F		2.960011311		1.861877513		-0.079787914
F		1.091115199		3.035866327		-2.39207711
F		1.743179845		4.013040102		0.622293695
F		4.117707146		3.128859026		2.463577031
F		0.000773386		1.806010811		0.237165572
