12
-186.39349496
Al		-0.074899053		1.636009984		2.128414512
Al		2.528794072		2.606108673		1.772524007
Al		1.35125402		2.66092874		-0.64441259
F		1.002081766		3.086467348		2.833139411
F		-1.571916891		2.680194358		2.177367446
F		-0.489795275		-0.01888427		2.75359357
F		1.788240597		0.870326533		1.940133373
F		2.959911977		1.861974173		-0.079925512
F		1.091184089		3.035887021		-2.392008508
F		1.743089746		4.013000367		0.622082723
F		4.117841424		3.128925525		2.463652832
F		0.000978813		1.806109662		0.237660201
