12
-186.39349496
Al		-0.074783993		1.635826846		2.127382854
Al		2.528926148		2.606069121		1.772785639
Al		1.350980956		2.660792746		-0.644311626
F		1.002114704		3.08621661		2.833047509
F		-1.571670699		2.680019544		2.177408456
F		-0.489667729		-0.018595424		2.75362616
F		1.787426491		0.870404723		1.940368031
F		2.959713309		1.862167493		-0.080200708
F		1.091321869		3.035928409		-2.391871304
F		1.742909548		4.012920897		0.621660779
F		4.11810998		3.129058523		2.463804434
F		0.001389667		1.806307364		0.238649459
