12
-186.39349496
Al		-0.074611403		1.635552139		2.125835367
Al		2.529124262		2.606009793		1.773178087
Al		1.35057136		2.660588755		-0.64416018
F		1.002164111		3.085840503		2.832909656
F		-1.571301411		2.679757323		2.177469971
F		-0.48947641		-0.018162155		2.753675045
F		1.786205332		0.870522008		1.940720018
F		2.959415307		1.862457473		-0.080613502
F		1.091528539		3.035990491		-2.391665498
F		1.742639251		4.012801692		0.621027863
F		4.118512814		3.12925802		2.464031837
F		0.002005948		1.806603917		0.240133346
