12
-186.39349496
Al		-0.074553873		1.63546057		2.125319538
Al		2.5291903		2.605990017		1.773308903
Al		1.350434828		2.660520758		-0.644109698
F		1.00218058		3.085715134		2.832863705
F		-1.571178315		2.679669916		2.177490476
F		-0.489412637		-0.018017732		2.75369134
F		1.785798279		0.870561103		1.940837347
F		2.959315973		1.862554133		-0.0807511
F		1.091597429		3.036011185		-2.391596896
F		1.742549152		4.012761957		0.620816891
F		4.118647092		3.129324519		2.464107638
F		0.002211375		1.806702768		0.240627975
