12
-186.39349496
Al		-0.074438813		1.635277432		2.12428788
Al		2.529322376		2.605950465		1.773570535
Al		1.350161764		2.660384764		-0.644008734
F		1.002213518		3.085464396		2.832771803
F		-1.570932123		2.679495102		2.177531486
F		-0.489285091		-0.017728886		2.75372393
F		1.784984173		0.870639293		1.941072005
F		2.959117305		1.862747453		-0.081026296
F		1.091735209		3.036052573		-2.391459692
F		1.742368954		4.012682487		0.620394947
F		4.118915648		3.129457517		2.46425924
F		0.002622229		1.80690047		0.241617233
