12
-186.39349496
Al		-0.074323753		1.635094294		2.123256222
Al		2.529454452		2.605910913		1.773832167
Al		1.3498887		2.66024877		-0.64390777
F		1.002246456		3.085213658		2.832679901
F		-1.570685931		2.679320288		2.177572496
F		-0.489157545		-0.01744004		2.75375652
F		1.784170067		0.870717483		1.941306663
F		2.958918637		1.862940773		-0.081301492
F		1.091872989		3.036093961		-2.391322488
F		1.742188756		4.012603017		0.619973003
F		4.119184204		3.129590515		2.464410842
F		0.003033083		1.807098172		0.242606491
