12
-186.39349496
Al		-0.073805983		1.634270173		2.118613761
Al		2.530048794		2.605732929		1.775009511
Al		1.348659912		2.659636797		-0.643453432
F		1.002394677		3.084085337		2.832266342
F		-1.569578067		2.678533625		2.177757041
F		-0.488583588		-0.016140233		2.753903175
F		1.78050659		0.871069338		1.942362624
F		2.958024631		1.863810713		-0.082539874
F		1.092492999		3.036280207		-2.39070507
F		1.741377865		4.012245402		0.618074255
F		4.120392706		3.130189006		2.465093051
F		0.004881926		1.807987831		0.247058152
