12
-186.39349496
Al		-0.073173153		1.633262914		2.112939642
Al		2.530775212		2.605515393		1.776448487
Al		1.34715806		2.65888883		-0.64289813
F		1.002575836		3.082706278		2.831760881
F		-1.568224011		2.677572148		2.177982596
F		-0.487882085		-0.01455158		2.75408242
F		1.776029007		0.871499383		1.943653243
F		2.956931957		1.864873973		-0.084053452
F		1.093250789		3.036507841		-2.389950448
F		1.740386776		4.011808317		0.615753563
F		4.121869764		3.130920495		2.465926862
F		0.007141623		1.809075192		0.252499071
