12
-186.39349496
Al		-0.073115623		1.633171345		2.112423813
Al		2.53084125		2.605495617		1.776579303
Al		1.347021528		2.658820833		-0.642847648
F		1.002592305		3.082580909		2.83171493
F		-1.568100915		2.677484741		2.178003101
F		-0.487818312		-0.014407157		2.754098715
F		1.775621954		0.871538478		1.943770572
F		2.956832623		1.864970633		-0.08419105
F		1.093319679		3.036528535		-2.389881846
F		1.740296677		4.011768582		0.615542591
F		4.122004042		3.130986994		2.466002663
F		0.00734705		1.809174043		0.2529937
