12
-186.39349496
Al		-0.073000563		1.632988207		2.111392155
Al		2.530973326		2.605456065		1.776840935
Al		1.346748464		2.658684839		-0.642746684
F		1.002625243		3.082330171		2.831623028
F		-1.567854723		2.677309927		2.178044111
F		-0.487690766		-0.014118311		2.754131305
F		1.774807848		0.871616668		1.94400523
F		2.956633955		1.865163953		-0.084466246
F		1.093457459		3.036569923		-2.389744642
F		1.740116479		4.011689112		0.615120647
F		4.122272598		3.131119992		2.466154265
F		0.007757904		1.809371745		0.253982958
