12
-186.39349496
Al		-0.072770443		1.632621931		2.109328839
Al		2.531237478		2.605376961		1.777364199
Al		1.346202336		2.658412851		-0.642544756
F		1.002691119		3.081828695		2.831439224
F		-1.567362339		2.676960299		2.178126131
F		-0.487435674		-0.013540619		2.754196485
F		1.773179636		0.871773048		1.944474546
F		2.956236619		1.865550593		-0.085016638
F		1.093733019		3.036652699		-2.389470234
F		1.739756083		4.011530172		0.614276759
F		4.12280971		3.131385988		2.466457469
F		0.008579612		1.809767149		0.255961474
