12
-186.39349496
Al		-0.072482793		1.632164086		2.106749694
Al		2.531567668		2.605278081		1.778018279
Al		1.345519676		2.658072866		-0.642292346
F		1.002773464		3.08120185		2.831209469
F		-1.566746859		2.676523264		2.178228656
F		-0.487116809		-0.012818504		2.75427796
F		1.771144371		0.871968523		1.945061191
F		2.955739949		1.866033893		-0.085704628
F		1.094077469		3.036756169		-2.389127224
F		1.739305588		4.011331497		0.613221899
F		4.1234811		3.131718483		2.466836474
F		0.009606747		1.810261404		0.258434619
