12
-186.39349496
Al		-0.072367733		1.631980948		2.105718036
Al		2.531699744		2.605238529		1.778279911
Al		1.345246612		2.657936872		-0.642191382
F		1.002806402		3.080951112		2.831117567
F		-1.566500667		2.67634845		2.178269666
F		-0.486989263		-0.012529658		2.75431055
F		1.770330265		0.872046713		1.945295849
F		2.955541281		1.866227213		-0.085979824
F		1.094215249		3.036797557		-2.38899002
F		1.73912539		4.011252027		0.612799955
F		4.123749656		3.131851481		2.466988076
F		0.010017601		1.810459106		0.259423877
