12
-186.39349496
Al		-0.072195143		1.631706241		2.104170549
Al		2.531897858		2.605179201		1.778672359
Al		1.344837016		2.657732881		-0.642039936
F		1.002855809		3.080575005		2.830979714
F		-1.566131379		2.676086229		2.178331181
F		-0.486797944		-0.012096389		2.754359435
F		1.769109106		0.872163998		1.945647836
F		2.955243279		1.866517193		-0.086392618
F		1.094421919		3.036859639		-2.388784214
F		1.738855093		4.011132822		0.612167039
F		4.12415249		3.132050978		2.467215479
F		0.010633882		1.810755659		0.260907764
