12
-186.39349496
Al		-0.078580973		1.6418704		2.161427568
Al		2.52456764		2.607374337		1.764151783
Al		1.359992068		2.665280548		-0.647643438
F		1.00102775		3.094490964		2.836080275
F		-1.579795035		2.685788406		2.176055126
F		-0.493876747		-0.028127342		2.75255069
F		1.814291989		0.867824453		1.932624317
F		2.966269353		1.855787933		-0.07111924
F		1.086775129		3.034562605		-2.396399036
F		1.748856082		4.015543407		0.635584931
F		4.109247632		3.124669589		2.458801568
F		-0.012168515		1.799783198		0.206003945
