12
-186.39349496
Al		-0.078638503		1.641961969		2.161943397
Al		2.524501602		2.607394113		1.764020967
Al		1.3601286		2.665348545		-0.64769392
F		1.001011281		3.094616333		2.836126226
F		-1.579918131		2.685875813		2.176034621
F		-0.49394052		-0.028271765		2.752534395
F		1.814699042		0.867785358		1.932506988
F		2.966368687		1.855691273		-0.070981642
F		1.086706239		3.034541911		-2.396467638
F		1.748946181		4.015583142		0.635795903
F		4.109113354		3.12460309		2.458725767
F		-0.012373942		1.799684347		0.205509316
