12
-186.39349496
Al		-0.078696033		1.642053538		2.162459226
Al		2.524435564		2.607413889		1.763890151
Al		1.360265132		2.665416542		-0.647744402
F		1.000994812		3.094741702		2.836172177
F		-1.580041227		2.68596322		2.176014116
F		-0.494004293		-0.028416188		2.7525181
F		1.815106095		0.867746263		1.932389659
F		2.966468021		1.855594613		-0.070844044
F		1.086637349		3.034521217		-2.39653624
F		1.74903628		4.015622877		0.636006875
F		4.108979076		3.124536591		2.458649966
F		-0.012579369		1.799585496		0.205014687
