12
-186.39349496
Al		-0.079156273		1.64278609		2.166585858
Al		2.52390726		2.607572097		1.762843623
Al		1.361357388		2.665960518		-0.648148258
F		1.00086306		3.095744654		2.836539785
F		-1.581025995		2.686662476		2.175850076
F		-0.494514477		-0.029571572		2.75238774
F		1.818362519		0.867433503		1.931451027
F		2.967262693		1.854821333		-0.06974326
F		1.086086229		3.034355665		-2.397085056
F		1.749757072		4.015940757		0.637694651
F		4.107904852		3.124004599		2.458043558
F		-0.014222785		1.798794688		0.201057655
