12
-186.39349496
Al		-0.079501453		1.643335504		2.169680832
Al		2.523511032		2.607690753		1.762058727
Al		1.36217658		2.6663685		-0.64845115
F		1.000764246		3.096496868		2.836815491
F		-1.581764571		2.687186918		2.175727046
F		-0.494897115		-0.03043811		2.75228997
F		1.820804837		0.867198933		1.930747053
F		2.967858697		1.854241373		-0.068917672
F		1.085672889		3.034231501		-2.397496668
F		1.750297666		4.016179167		0.638960483
F		4.107099184		3.123605605		2.457588752
F		-0.015455347		1.798201582		0.198089881
