12
-186.39349496
Al		-0.079558983		1.643427073		2.170196661
Al		2.523444994		2.607710529		1.761927911
Al		1.362313112		2.666436497		-0.648501632
F		1.000747777		3.096622237		2.836861442
F		-1.581887667		2.687274325		2.175706541
F		-0.494960888		-0.030582533		2.752273675
F		1.82121189		0.867159838		1.930629724
F		2.967958031		1.854144713		-0.068780074
F		1.085603999		3.034210807		-2.39756527
F		1.750387765		4.016218902		0.639171455
F		4.106964906		3.123539106		2.457512951
F		-0.015660774		1.798102731		0.197595252
