12
-186.39349496
Al		-0.079961693		1.644068056		2.173807464
Al		2.522982728		2.607848961		1.761012199
Al		1.363268836		2.666912476		-0.648855006
F		1.000632494		3.09749982		2.837183099
F		-1.582749339		2.687886174		2.175563006
F		-0.495407299		-0.031593494		2.75215961
F		1.824061261		0.866886173		1.929808421
F		2.968653369		1.853468093		-0.067816888
F		1.085121769		3.034065949		-2.398045484
F		1.751018458		4.016497047		0.640648259
F		4.10602496		3.123073613		2.456982344
F		-0.017098763		1.797410774		0.194132849
