12
-186.39349496
Al		-0.080019223		1.644159625		2.174323293
Al		2.52291669		2.607868737		1.760881383
Al		1.363405368		2.666980473		-0.648905488
F		1.000616025		3.097625189		2.83722905
F		-1.582872435		2.687973581		2.175542501
F		-0.495471072		-0.031737917		2.752143315
F		1.824468314		0.866847078		1.929691092
F		2.968752703		1.853371433		-0.06767929
F		1.085052879		3.034045255		-2.398114086
F		1.751108557		4.016536782		0.640859231
F		4.105890682		3.123007114		2.456906543
F		-0.01730419		1.797311923		0.19363822
