12
-186.39349496
Al		-0.080076753		1.644251194		2.174839122
Al		2.522850652		2.607888513		1.760750567
Al		1.3635419		2.66704847		-0.64895597
F		1.000599556		3.097750558		2.837275001
F		-1.582995531		2.688060988		2.175521996
F		-0.495534845		-0.03188234		2.75212702
F		1.824875367		0.866807983		1.929573763
F		2.968852037		1.853274773		-0.067541692
F		1.084983989		3.034024561		-2.398182688
F		1.751198656		4.016576517		0.641070203
F		4.105756404		3.122940615		2.456830742
F		-0.017509617		1.797213072		0.193143591
