12
-186.39349496
Al		-0.080134283		1.644342763		2.175354951
Al		2.522784614		2.607908289		1.760619751
Al		1.363678432		2.667116467		-0.649006452
F		1.000583087		3.097875927		2.837320952
F		-1.583118627		2.688148395		2.175501491
F		-0.495598618		-0.032026763		2.752110725
F		1.82528242		0.866768888		1.929456434
F		2.968951371		1.853178113		-0.067404094
F		1.084915099		3.034003867		-2.39825129
F		1.751288755		4.016616252		0.641281175
F		4.105622126		3.122874116		2.456754941
F		-0.017715044		1.797114221		0.192648962
