12
-186.39349496
Al		-0.080249343		1.644525901		2.176386609
Al		2.522652538		2.607947841		1.760358119
Al		1.363951496		2.667252461		-0.649107416
F		1.000550149		3.098126665		2.837412854
F		-1.583364819		2.688323209		2.175460481
F		-0.495726164		-0.032315609		2.752078135
F		1.826096526		0.866690698		1.929221776
F		2.969150039		1.852984793		-0.067128898
F		1.084777319		3.033962479		-2.398388494
F		1.751468953		4.016695722		0.641703119
F		4.10535357		3.122741118		2.456603339
F		-0.018125898		1.796916519		0.191659704
