12
-186.39349496
Al		-0.080306873		1.64461747		2.176902438
Al		2.5225865		2.607967617		1.760227303
Al		1.364088028		2.667320458		-0.649157898
F		1.00053368		3.098252034		2.837458805
F		-1.583487915		2.688410616		2.175439976
F		-0.495789937		-0.032460032		2.75206184
F		1.826503579		0.866651603		1.929104447
F		2.969249373		1.852888133		-0.0669913
F		1.084708429		3.033941785		-2.398457096
F		1.751559052		4.016735457		0.641914091
F		4.105219292		3.122674619		2.456527538
F		-0.018331325		1.796817668		0.191165075
