12
-186.39349496
Al		-0.080709583		1.645258453		2.180513241
Al		2.522124234		2.608106049		1.759311591
Al		1.365043752		2.667796437		-0.649511272
F		1.000418397		3.099129617		2.837780462
F		-1.584349587		2.689022465		2.175296441
F		-0.496236348		-0.033470993		2.751947775
F		1.82935295		0.866377938		1.928283144
F		2.969944711		1.852211513		-0.066028114
F		1.084226199		3.033796927		-2.39893731
F		1.752189745		4.017013602		0.643390895
F		4.104279346		3.122209126		2.455996931
F		-0.019769314		1.796125711		0.187702672
