12
-186.39349496
Al		-0.080939703		1.645624729		2.182576557
Al		2.521860082		2.608185153		1.758788327
Al		1.36558988		2.668068425		-0.6497132
F		1.000352521		3.099631093		2.837964266
F		-1.584841971		2.689372093		2.175214421
F		-0.49649144		-0.034048685		2.751882595
F		1.830981162		0.866221558		1.927813828
F		2.970342047		1.851824873		-0.065477722
F		1.083950639		3.033714151		-2.399211718
F		1.752550141		4.017172542		0.644234783
F		4.103742234		3.12194313		2.455693727
F		-0.020591022		1.795730307		0.185724156
