12
-186.39349496
Al		-0.081227353		1.646082574		2.185155702
Al		2.521529892		2.608284033		1.758134247
Al		1.36627254		2.66840841		-0.64996561
F		1.000270176		3.100257938		2.838194021
F		-1.585457451		2.689809128		2.175111896
F		-0.496810305		-0.0347708		2.75180112
F		1.833016427		0.866026083		1.927227183
F		2.970838717		1.851341573		-0.064789732
F		1.083606189		3.033610681		-2.399554728
F		1.753000636		4.017371217		0.645289643
F		4.103070844		3.121610635		2.455314722
F		-0.021618157		1.795236052		0.183251011
