12
-186.39349496
Al		-0.078235793		1.641320986		2.158332594
Al		2.524963868		2.607255681		1.764936679
Al		1.359172876		2.664872566		-0.647340546
F		1.001126564		3.09373875		2.835804569
F		-1.579056459		2.685263964		2.176178156
F		-0.493494109		-0.027260804		2.75264846
F		1.811849671		0.868059023		1.933328291
F		2.965673349		1.856367893		-0.071944828
F		1.087188469		3.034686769		-2.395987424
F		1.748315488		4.015304997		0.634319099
F		4.1100533		3.125068583		2.459256374
F		-0.010935953		1.800376304		0.208971719
