12
-186.39349496
Al		-0.081630063		1.646723557		2.188766505
Al		2.521067626		2.608422465		1.757218535
Al		1.367228264		2.668884389		-0.650318984
F		1.000154893		3.101135521		2.838515678
F		-1.586319123		2.690420977		2.174968361
F		-0.497256716		-0.035781761		2.751687055
F		1.835865798		0.865752418		1.92640588
F		2.971534055		1.850664953		-0.063826546
F		1.083123959		3.033465823		-2.400034942
F		1.753631329		4.017649362		0.646766447
F		4.102130898		3.121145142		2.454784115
F		-0.023056146		1.794544095		0.179788608
