12
-186.39349496
Al		-0.081687593		1.646815126		2.189282334
Al		2.521001588		2.608442241		1.757087719
Al		1.367364796		2.668952386		-0.650369466
F		1.000138424		3.10126089		2.838561629
F		-1.586442219		2.690508384		2.174947856
F		-0.497320489		-0.035926184		2.75167076
F		1.836272851		0.865713323		1.926288551
F		2.971633389		1.850568293		-0.063688948
F		1.083055069		3.033445129		-2.400103544
F		1.753721428		4.017689097		0.646977419
F		4.10199662		3.121078643		2.454708314
F		-0.023261573		1.794445244		0.179293979
