12
-186.39349496
Al		-0.081745123		1.646906695		2.189798163
Al		2.52093555		2.608462017		1.756956903
Al		1.367501328		2.669020383		-0.650419948
F		1.000121955		3.101386259		2.83860758
F		-1.586565315		2.690595791		2.174927351
F		-0.497384262		-0.036070607		2.751654465
F		1.836679904		0.865674228		1.926171222
F		2.971732723		1.850471633		-0.06355135
F		1.082986179		3.033424435		-2.400172146
F		1.753811527		4.017728832		0.647188391
F		4.101862342		3.121012144		2.454632513
F		-0.023467		1.794346393		0.17879935
