12
-186.39349496
Al		-0.081975243		1.647272971		2.191861479
Al		2.520671398		2.608541121		1.756433639
Al		1.368047456		2.669292371		-0.650621876
F		1.000056079		3.101887735		2.838791384
F		-1.587057699		2.690945419		2.174845331
F		-0.497639354		-0.036648299		2.751589285
F		1.838308116		0.865517848		1.925701906
F		2.972130059		1.850084993		-0.063000958
F		1.082710619		3.033341659		-2.400446554
F		1.754171923		4.017887772		0.648032279
F		4.10132523		3.120746148		2.454329309
F		-0.024288708		1.793950989		0.176820834
