12
-186.39349496
Al		-0.082032773		1.64736454		2.192377308
Al		2.52060536		2.608560897		1.756302823
Al		1.368183988		2.669360368		-0.650672358
F		1.00003961		3.102013104		2.838837335
F		-1.587180795		2.691032826		2.174824826
F		-0.497703127		-0.036792722		2.75157299
F		1.838715169		0.865478753		1.925584577
F		2.972229393		1.849988333		-0.06286336
F		1.082641729		3.033320965		-2.400515156
F		1.754262022		4.017927507		0.648243251
F		4.101190952		3.120679649		2.454253508
F		-0.024494135		1.793852138		0.176326205
