12
-186.39349496
Al		-0.082435483		1.648005523		2.195988111
Al		2.520143094		2.608699329		1.755387111
Al		1.369139712		2.669836347		-0.651025732
F		0.999924327		3.102890687		2.839158992
F		-1.588042467		2.691644675		2.174681291
F		-0.498149538		-0.037803683		2.751458925
F		1.84156454		0.865205088		1.924763274
F		2.972924731		1.849311713		-0.061900174
F		1.082159499		3.033176107		-2.40099537
F		1.754892715		4.018205652		0.649720055
F		4.100251006		3.120214156		2.453722901
F		-0.025932124		1.793160181		0.172863802
