12
-186.39349496
Al		-0.082608073		1.64828023		2.197535598
Al		2.51994498		2.608758657		1.754994663
Al		1.369549308		2.670040338		-0.651177178
F		0.99987492		3.103266794		2.839296845
F		-1.588411755		2.691906896		2.174619776
F		-0.498340857		-0.038236952		2.75141004
F		1.842785699		0.865087803		1.924411287
F		2.973222733		1.849021733		-0.06148738
F		1.081952829		3.033114025		-2.401201176
F		1.755163012		4.018324857		0.650352971
F		4.099848172		3.120014659		2.453495498
F		-0.026548405		1.792863628		0.171379915
