12
-186.39349496
Al		-0.082780663		1.648554937		2.199083085
Al		2.519746866		2.608817985		1.754602215
Al		1.369958904		2.670244329		-0.651328624
F		0.999825513		3.103642901		2.839434698
F		-1.588781043		2.692169117		2.174558261
F		-0.498532176		-0.038670221		2.751361155
F		1.844006858		0.864970518		1.9240593
F		2.973520735		1.848731753		-0.061074586
F		1.081746159		3.033051943		-2.401406982
F		1.755433309		4.018444062		0.650985887
F		4.099445338		3.119815162		2.453268095
F		-0.027164686		1.792567075		0.169896028
