12
-186.39349496
Al		-0.082953253		1.648829644		2.200630572
Al		2.519548752		2.608877313		1.754209767
Al		1.3703685		2.67044832		-0.65148007
F		0.999776106		3.104019008		2.839572551
F		-1.589150331		2.692431338		2.174496746
F		-0.498723495		-0.03910349		2.75131227
F		1.845228017		0.864853233		1.923707313
F		2.973818737		1.848441773		-0.060661792
F		1.081539489		3.032989861		-2.401612788
F		1.755703606		4.018563267		0.651618803
F		4.099042504		3.119615665		2.453040692
F		-0.027780967		1.792270522		0.168412141
