12
-186.39349496
Al		-0.083010783		1.648921213		2.201146401
Al		2.519482714		2.608897089		1.754078951
Al		1.370505032		2.670516317		-0.651530552
F		0.999759637		3.104144377		2.839618502
F		-1.589273427		2.692518745		2.174476241
F		-0.498787268		-0.039247913		2.751295975
F		1.84563507		0.864814138		1.923589984
F		2.973918071		1.848345113		-0.060524194
F		1.081470599		3.032969167		-2.40168139
F		1.755793705		4.018603002		0.651829775
F		4.098908226		3.119549166		2.452964891
F		-0.027986394		1.792171671		0.167917512
