12
-186.39349496
Al		-0.083068313		1.649012782		2.20166223
Al		2.519416676		2.608916865		1.753948135
Al		1.370641564		2.670584314		-0.651581034
F		0.999743168		3.104269746		2.839664453
F		-1.589396523		2.692606152		2.174455736
F		-0.498851041		-0.039392336		2.75127968
F		1.846042123		0.864775043		1.923472655
F		2.974017405		1.848248453		-0.060386596
F		1.081401709		3.032948473		-2.401749992
F		1.755883804		4.018642737		0.652040747
F		4.098773948		3.119482667		2.45288909
F		-0.028191821		1.79207282		0.167422883
