12
-186.39349496
Al		-0.083125843		1.649104351		2.202178059
Al		2.519350638		2.608936641		1.753817319
Al		1.370778096		2.670652311		-0.651631516
F		0.999726699		3.104395115		2.839710404
F		-1.589519619		2.692693559		2.174435231
F		-0.498914814		-0.039536759		2.751263385
F		1.846449176		0.864735948		1.923355326
F		2.974116739		1.848151793		-0.060248998
F		1.081332819		3.032927779		-2.401818594
F		1.755973903		4.018682472		0.652251719
F		4.09863967		3.119416168		2.452813289
F		-0.028397248		1.791973969		0.166928254
