12
-186.39349496
Al		-0.083183373		1.64919592		2.202693888
Al		2.5192846		2.608956417		1.753686503
Al		1.370914628		2.670720308		-0.651681998
F		0.99971023		3.104520484		2.839756355
F		-1.589642715		2.692780966		2.174414726
F		-0.498978587		-0.039681182		2.75124709
F		1.846856229		0.864696853		1.923237997
F		2.974216073		1.848055133		-0.0601114
F		1.081263929		3.032907085		-2.401887196
F		1.756064002		4.018722207		0.652462691
F		4.098505392		3.119349669		2.452737488
F		-0.028602675		1.791875118		0.166433625
