12
-186.39349496
Al		-0.083298433		1.649379058		2.203725546
Al		2.519152524		2.608995969		1.753424871
Al		1.371187692		2.670856302		-0.651782962
F		0.999677292		3.104771222		2.839848257
F		-1.589888907		2.69295578		2.174373716
F		-0.499106133		-0.039970028		2.7512145
F		1.847670335		0.864618663		1.923003339
F		2.974414741		1.847861813		-0.059836204
F		1.081126149		3.032865697		-2.4020244
F		1.7562442		4.018801677		0.652884635
F		4.098236836		3.119216671		2.452585886
F		-0.029013529		1.791677416		0.165444367
