12
-186.39349496
Al		-0.083471023		1.649653765		2.205273033
Al		2.51895441		2.609055297		1.753032423
Al		1.371597288		2.671060293		-0.651934408
F		0.999627885		3.105147329		2.83998611
F		-1.590258195		2.693218001		2.174312201
F		-0.499297452		-0.040403297		2.751165615
F		1.848891494		0.864501378		1.922651352
F		2.974712743		1.847571833		-0.05942341
F		1.080919479		3.032803615		-2.402230206
F		1.756514497		4.018920882		0.653517551
F		4.097834002		3.119017174		2.452358483
F		-0.02962981		1.791380863		0.16396048
