12
-186.39349496
Al		-0.083528553		1.649745334		2.205788862
Al		2.518888372		2.609075073		1.752901607
Al		1.37173382		2.67112829		-0.65198489
F		0.999611416		3.105272698		2.840032061
F		-1.590381291		2.693305408		2.174291696
F		-0.499361225		-0.04054772		2.75114932
F		1.849298547		0.864462283		1.922534023
F		2.974812077		1.847475173		-0.059285812
F		1.080850589		3.032782921		-2.402298808
F		1.756604596		4.018960617		0.653728523
F		4.097699724		3.118950675		2.452282682
F		-0.029835237		1.791282012		0.163465851
