12
Properties=species:S:1:pos:R:3:forces:R:3 energy=-186.16949546 pbc="F F F"
Al    -1.6633434610000002    2.49916902    -1.207389291    0.300565    0.301265    0.329775
Al    -0.574988355    -0.009931194    -2.379030374    -0.394101    0.098044    0.181143
Al    -2.2347573759999997    -0.34763571800000004    -0.5577510370000001    0.116186    0.201869    -0.378799
F    -0.672419541    3.580896636    -0.103764457    -0.197573    0.281756    -0.127809
F    -3.014394447    2.952342993    -2.354600392    -0.007161    0.170132    0.02502
F    -1.37428488    -1.715365827    -1.725431161    0.054761    -0.006017    0.048788
F    -2.525995162    1.408432883    0.053069962    0.012589    -0.050886    0.025103
F    -3.374566963    -1.002783232    0.834832253    0.061348    -0.536018    -0.040931
F    0.780166598    -0.15744034100000004    -3.724194504    0.063841    -0.535511    -0.043667
F    -0.328080925    1.855631514    -2.358720031    0.035134    -0.0463    0.000365
F    -2.505910357    0.388389151    -2.366622828    -0.022133    -0.018575    -0.023616
F    -0.33348296800000005    0.13027503899999998    -0.434704008    -0.023457    0.14024    0.004627
