      12
SCF Done            -186.16949546
Al           -1.656297461         2.620225020        -1.178521291
Al           -0.562601355         0.001563806        -2.361745374
Al           -2.218593376        -0.335372718        -0.544611037
F            -0.807990541         3.870608636        -0.173593457
F            -2.974078447         3.249955993        -2.262676392
F            -1.356223880        -1.679687827        -1.702356161
F            -2.508744162         1.458105883         0.045791962
F            -3.160549963        -1.481398232         0.513638253
F             0.576381598        -0.721063341        -3.586929504
F            -0.342309925         1.898899514        -2.331455031
F            -2.485221357         0.458906151        -2.334692828
F            -0.332651968         0.213486039        -0.418518008
