      12
SCF Done            -167.58628633
Al           -1.656297389         2.620225085        -1.178521206
Al           -0.562601370         0.001563804        -2.361745356
Al           -2.218593386        -0.335372712        -0.544611049
F            -0.807990480         3.870608711        -0.173593373
F            -2.974078370         3.249956066        -2.262676319
F            -1.356223888        -1.679687837        -1.702356154
F            -2.508744080         1.458105910         0.045791985
F            -3.160550130        -1.481398146         0.513638164
F             0.576381490        -0.721063260        -3.586930000
F            -0.342310293         1.898899522        -2.331454922
F            -2.485221357         0.458906151        -2.334692828
F            -0.332651963         0.213485980        -0.418517988
