12
Properties=species:S:1:pos:R:3:forces:R:3 energy=-186.33070735 pbc="F F F"
Al    -1.744711361    2.87485652    -1.291318091    0.006325    0.041789    0.077727
Al    -0.684460355    0.32421830599999996    -2.541479074    0.104554    0.044043    -0.535022
Al    -2.095875176    -0.024642118000000046    -0.475751937    -0.046321    -0.024993    0.442411
F    -0.687509941    3.974169336    -0.332426457    0.105248    0.10352    0.091907
F    -3.188674847    3.411718593    -2.2204579919999996    -0.182488    0.06434    -0.128452
F    -1.40872028    -1.410002327    -1.770357461    -0.008454    -0.110914    -0.02119
F    -2.398357162    1.714099883    0.10755606200000001    -0.039474    -0.041468    0.083693
F    -3.015753263    -1.044189932    0.765379653    -0.127519    -0.089002    0.127064
F    0.350781698    -0.23927294099999996    -3.9339557039999997    0.10265    -0.022918    -0.093379
F    -0.492053225    2.169885014    -2.553447431    0.100585    -0.010371    -0.085841
F    -2.585337557    0.7181665509999999    -2.249122628    -0.106917    0.043544    -0.194026
F    -0.20856586800000002    0.451725239    -0.592032808    0.091813    0.00243    0.235108
