      12
SCF Done            -186.33070735
Al           -1.713515361         2.557025520        -1.219909091
Al           -0.653264355         0.006387306        -2.470070074
Al           -2.064679176        -0.342473118        -0.404342937
F            -0.661330941         3.707451336        -0.272501457
F            -3.162495847         3.145000593        -2.160532992
F            -1.382541280        -1.676720327        -1.710432461
F            -2.372178162         1.447381883         0.167481062
F            -2.989574263        -1.310907932         0.825304653
F             0.376960698        -0.505990941        -3.874030704
F            -0.465874225         1.903167014        -2.493522431
F            -2.559158557         0.451448551        -2.189197628
F            -0.182386868         0.185007239        -0.532107808
