12
Properties=species:S:1:pos:R:3:forces:R:3 energy=-181.56086351 pbc="F F F"
Al    0.255605172    -2.442424811    -1.897993061    -0.059408    -0.134487    -0.043063
Al    1.9658527300000002    -0.6263654559999999    -0.800012024    -1.993716    -2.328005    -1.190867
Al    -0.423464006    0.200639103    -1.6591868829999998    0.0795    -2.851278    -0.29513
F    3.4986540880000003    -0.207179816    -0.161627623    -2.008075    -0.628074    -0.999662
F    -0.248275574    -4.315539493    -2.277443236    -0.841311    -3.322059    -0.774796
F    2.407891038    -1.538846476    -2.219699189    2.419446    2.898609    1.470614
F    2.054300495    0.627074939    -2.1892978199999997    -0.775927    -1.326546    2.303724
F    -1.404521622    1.559306731    -2.1457287110000003    0.97222    -1.298138    0.297537
F    -1.3853332859999998    -1.252429652    -0.698215169    -1.038986    3.375831    0.591238
F    -0.28848957399999997    -0.562131309    -3.072925981    -0.528978    3.504461    -0.514049
F    0.275985196    0.347464598    -0.721202202    1.34307    -0.792128    -2.288588
F    1.225920534    -1.97000281    0.081567627    2.432165    2.901813    1.443043
