      12
SCF Done            -181.56086351
Al            0.237416172        -2.447011811        -1.858572061
Al            1.984342730        -0.621702456        -0.840084024
Al           -0.349642006         0.219257103        -1.819173883
F             3.472874088        -0.213681816        -0.105758623
F            -0.239741574        -4.313386493        -2.295938236
F             2.354348038        -1.618880476        -2.233814189
F             1.464005495         0.562643939        -2.102948820
F            -1.402923622         1.559708731        -2.149190711
F            -1.285010286        -1.020292652        -0.914448169
F            -0.170949574        -0.739322309        -3.328848981
F             0.590715196         0.342397598        -0.210347202
F             1.264486534        -1.893746810         0.128142627
