12
Properties=species:S:1:pos:R:3:forces:R:3 energy=-186.35560083 pbc="F F F"
Al    -0.049799657    1.548280596    2.051832721    0.578218    -0.791246    0.137655
Al    2.6768756959999997    2.293983025    1.905490775    0.619895    -0.372746    0.104623
Al    1.641673258    2.708504981    -0.5643654530000001    0.57171    -0.381639    0.290781
F    1.106993352    2.9060503189999998    2.882659232    -0.216668    0.110963    0.088684
F    -1.472706947    2.723156343    2.211392495    -0.483635    0.351718    -0.004368
F    -0.68478146    -0.195161418    2.25787426    0.025863    0.308239    -0.105098
F    1.789283369    0.656514385    1.9452382339999998    -0.082716    0.235375    -0.001936
F    3.071594342    1.648724672    0.022204546    -0.394565    0.233024    -0.128355
F    1.4105437140000001    3.187253752    -2.314714404    -0.081385    0.085408    -0.236136
F    2.094249868    3.926250387    0.800779665    -0.122739    0.249807    -0.034701
F    4.261382965999999    2.6445464110000003    2.694021168    -0.311318    -0.057669    -0.127912
F    0.1087066    1.9205871680000002    0.171721505    -0.102661    0.028766    0.016762
