      12
SCF Done            -167.80210884
Al           -0.125653613         1.762684372         2.171810220
Al            2.507275496         2.649039825         1.782145375
Al            1.431235684         2.481644584        -0.679951854
F             0.958922378         3.238605336         2.760501863
F            -1.605336483         2.808550122         2.054969786
F            -0.573827071         0.131871934         2.894553830
F             1.766100553         0.927094793         2.072352065
F             2.997633345         1.730944253         0.018192584
F             1.208407609         2.737165933        -2.462980412
F             1.786588894         3.964720587         0.503479667
F             4.080755768         3.198444977         2.479353380
F             0.013198009         1.738133810         0.214443293
