      12
SCF Done            -186.35560083
Al            0.065545343         1.509038596         2.180225721
Al            2.668796696         2.475404025         1.790709775
Al            1.501790258         2.532730981        -0.622049453
F             1.121594352         2.982438319         2.856498232
F            -1.457948947         2.574191343         2.197270495
F            -0.372742460        -0.136942418         2.773716260
F             1.929776369         0.757745385         1.955002234
F             3.085446342         1.746399672        -0.051800454
F             1.207970714         2.924262752        -2.374606404
F             1.868143868         3.904518387         0.654022665
F             4.231227966         3.014919411         2.480681168
F             0.110665600         1.690421168         0.232909505
