12
Properties=species:S:1:pos:R:3:forces:R:3 energy=-186.53506746 pbc="F F F"
Al    -0.21526683800000002    1.12938096    -2.087672136    0.046639    0.1752    -0.077561
Al    -0.630226514    1.056376253    1.1038744360000001    -0.044175    0.126114    -0.174088
Al    -2.874998719    0.421565489    -1.4388851420000002    0.0118    -0.072648    0.160703
F    -3.3380142609999996    0.14395760800000001    -3.272023908    -0.054094    -0.039144    -0.192666
F    -1.1575819569999999    -0.521655301    -1.673421245    -0.044683    -0.168223    0.001454
F    -1.880596887    2.0859836030000003    -1.890868583    0.069645    0.102461    -0.029383
F    -2.316466125    0.7914439390000001    0.513860624    -0.250907    -0.006076    -0.1152
F    0.40597132700000005    1.637328243    -0.386100911    0.01362    0.006379    -0.017319
F    -0.390411975    2.590979997    2.1367407469999997    0.092936    0.393528    0.25476
F    0.271632915    -0.525874658    1.547372245    0.209747    -0.509967    0.171209
F    -4.402868091999999    0.11019087000000002    -0.47038956499999995    -0.061554    0.001103    0.032755
F    0.9189456269999999    1.2852419370000001    -3.421591229    0.011025    -0.008727    -0.014664
