      12
SCF Done            -186.53506746
Al           -0.377759838         1.096844960        -1.820685136
Al           -0.451800514         1.092469253         1.281318436
Al           -3.008513719         0.405766489        -1.857806142
F            -3.481392261         0.081932608        -3.595286908
F            -1.331796957        -0.547815301        -1.718690245
F            -1.991524887         2.055990603        -2.016084583
F            -2.089421125         0.970961939         0.450857624
F             0.566410327         1.408781243        -0.297418911
F            -0.125814975         2.646430997         2.203937747
F             0.246452915        -0.519460658         1.841672245
F            -4.286570092         0.256771870        -0.581668565
F             0.744384627         1.258591937        -3.234138229
