12
-186.35103317
Al		-1.700827064		2.559289101		-1.230400922
Al		-0.533315571		-4.0997e-05		-2.345373666
Al		-2.199100004		-0.338969941		-0.517493898
F		-0.757643379		3.685430809		-0.162046897
F		-3.017437012		3.176772689		-2.31575968
F		-1.37734706		-1.683456525		-1.722304918
F		-2.527896855		1.450848387		0.056381179
F		-3.244551591		-1.300441388		0.599495312
F		0.618317246		-0.514482518		-3.639264315
F		-0.332739378		1.897486253		-2.352384234
F		-2.4552004		0.47486567		-2.304374625
F		-0.30195463		0.159600994		-0.400534437
