12
-186.35103317
Al		-1.700668939		2.559350349		-1.23024547
Al		-0.531660324		0.00041525		-2.347113096
Al		-2.200701758		-0.339176378		-0.515659395
F		-0.757464926		3.685677803		-0.161838469
F		-3.017240838		3.176366008		-2.315656313
F		-1.377291576		-1.676300189		-1.72092741
F		-2.52627903		1.449843768		0.053733061
F		-3.246862724		-1.302676214		0.601954956
F		0.620873514		-0.515726992		-3.64214571
F		-0.334968583		1.895698896		-2.35081097
F		-2.454939579		0.474448077		-2.304214366
F		-0.302531481		0.158922536		-0.401185934
