12
-186.35103317
Al		-1.700985189		2.559227853		-1.230556374
Al		-0.534970818		-0.000497244		-2.343634236
Al		-2.19749825		-0.338763504		-0.519328401
F		-0.757821832		3.685183815		-0.162255325
F		-3.017633186		3.17717937		-2.315863047
F		-1.377402544		-1.690612861		-1.723682426
F		-2.52951468		1.451853006		0.059029297
F		-3.242240458		-1.298206562		0.597035668
F		0.615760978		-0.513238044		-3.63638292
F		-0.330510173		1.89927361		-2.353957498
F		-2.455461221		0.475283263		-2.304534884
F		-0.301377779		0.160279452		-0.39988294
