12
-186.35103317
Al		-1.701057064		2.559200013		-1.230627034
Al		-0.535723203		-0.000704629		-2.342843586
Al		-2.19677018		-0.338669669		-0.520162266
F		-0.757902947		3.685071545		-0.162350065
F		-3.017722356		3.177364225		-2.315910032
F		-1.377427764		-1.693865741		-1.724308566
F		-2.530250055		1.452309651		0.060232987
F		-3.241189943		-1.297190732		0.595917648
F		0.614599038		-0.512672374		-3.635073195
F		-0.329496898		1.900086045		-2.354672618
F		-2.455579776		0.475473078		-2.304607729
F		-0.301115574		0.160587842		-0.399586805
