12
-186.35103317
Al		-1.700683314		2.559344781		-1.230259602
Al		-0.531810801		0.000373773		-2.346954966
Al		-2.200556144		-0.339157611		-0.515826168
F		-0.757481149		3.685655349		-0.161857417
F		-3.017258672		3.176402979		-2.31566571
F		-1.37729662		-1.676950765		-1.721052638
F		-2.526426105		1.449935097		0.053973799
F		-3.246652621		-1.302473048		0.601731352
F		0.620641126		-0.515613858		-3.641883765
F		-0.334765928		1.895861383		-2.350953994
F		-2.45496329		0.47448604		-2.304228935
F		-0.30247904		0.158984214		-0.401126707
