12
-186.35103317
Al		-1.701071439		2.559194445		-1.230641166
Al		-0.53587368		-0.000746106		-2.342685456
Al		-2.196624566		-0.338650902		-0.520329039
F		-0.75791917		3.685049091		-0.162369013
F		-3.01774019		3.177401196		-2.315919429
F		-1.377432808		-1.694516317		-1.724433794
F		-2.53039713		1.45240098		0.060473725
F		-3.24097984		-1.296987566		0.595694044
F		0.61436665		-0.51255924		-3.63481125
F		-0.329294243		1.900248532		-2.354815642
F		-2.455603487		0.475511041		-2.304622298
F		-0.301063133		0.16064952		-0.399527578
