12
-186.35103317
Al		-1.701085814		2.559188877		-1.230655298
Al		-0.536024157		-0.000787583		-2.342527326
Al		-2.196478952		-0.338632135		-0.520495812
F		-0.757935393		3.685026637		-0.162387961
F		-3.017758024		3.177438167		-2.315928826
F		-1.377437852		-1.695166893		-1.724559022
F		-2.530544205		1.452492309		0.060714463
F		-3.240769737		-1.2967844		0.59547044
F		0.614134262		-0.512446106		-3.634549305
F		-0.329091588		1.900411019		-2.354958666
F		-2.455627198		0.475549004		-2.304636867
F		-0.301010692		0.160711198		-0.399468351
