12
-186.35103317
Al		-1.701143314		2.559166605		-1.230711826
Al		-0.536626065		-0.000953491		-2.341894806
Al		-2.195896496		-0.338557067		-0.521162904
F		-0.758000285		3.684936821		-0.162463753
F		-3.01782936		3.177586051		-2.315966414
F		-1.377458028		-1.697769197		-1.725059934
F		-2.531132505		1.452857625		0.061677415
F		-3.239929325		-1.295971736		0.594576024
F		0.61320471		-0.51199357		-3.633501525
F		-0.328280968		1.901060967		-2.355530762
F		-2.455722042		0.475700856		-2.304695143
F		-0.300800928		0.16095791		-0.399231443
