12
-186.35103317
Al		-1.701186439		2.559149901		-1.230754222
Al		-0.537077496		-0.001077922		-2.341420416
Al		-2.195459654		-0.338500766		-0.521663223
F		-0.758048954		3.684869459		-0.162520597
F		-3.017882862		3.177696964		-2.315994605
F		-1.37747316		-1.699720925		-1.725435618
F		-2.53157373		1.453131612		0.062399629
F		-3.239299016		-1.295362238		0.593905212
F		0.612507546		-0.511654168		-3.63271569
F		-0.327673003		1.901548428		-2.355959834
F		-2.455793175		0.475814745		-2.30473885
F		-0.300643605		0.161142944		-0.399053762
