12
-186.35103317
Al		-1.701200814		2.559144333		-1.230768354
Al		-0.537227973		-0.001119399		-2.341262286
Al		-2.19531404		-0.338481999		-0.521829996
F		-0.758065177		3.684847005		-0.162539545
F		-3.017900696		3.177733935		-2.316004002
F		-1.377478204		-1.700371501		-1.725560846
F		-2.531720805		1.453222941		0.062640367
F		-3.239088913		-1.295159072		0.593681608
F		0.612275158		-0.511541034		-3.632453745
F		-0.327470348		1.901710915		-2.356102858
F		-2.455816886		0.475852708		-2.304753419
F		-0.300591164		0.161204622		-0.398994535
