12
-186.35103317
Al		-1.700697689		2.559339213		-1.230273734
Al		-0.531961278		0.000332296		-2.346796836
Al		-2.20041053		-0.339138844		-0.515992941
F		-0.757497372		3.685632895		-0.161876365
F		-3.017276506		3.17643995		-2.315675107
F		-1.377301664		-1.677601341		-1.721177866
F		-2.52657318		1.450026426		0.054214537
F		-3.246442518		-1.302269882		0.601507748
F		0.620408738		-0.515500724		-3.64162182
F		-0.334563273		1.89602387		-2.351097018
F		-2.454987001		0.474524003		-2.304243504
F		-0.302426599		0.159045892		-0.40106748
