12
-186.35103317
Al		-1.701215189		2.559138765		-1.230782486
Al		-0.53737845		-0.001160876		-2.341104156
Al		-2.195168426		-0.338463232		-0.521996769
F		-0.7580814		3.684824551		-0.162558493
F		-3.01791853		3.177770906		-2.316013399
F		-1.377483248		-1.701022077		-1.725686074
F		-2.53186788		1.45331427		0.062881105
F		-3.23887881		-1.294955906		0.593458004
F		0.61204277		-0.5114279		-3.6321918
F		-0.327267693		1.901873402		-2.356245882
F		-2.455840597		0.475890671		-2.304767988
F		-0.300538723		0.1612663		-0.398935308
