12
-186.35103317
Al		-1.701272689		2.559116493		-1.230839014
Al		-0.537980358		-0.001326784		-2.340471636
Al		-2.19458597		-0.338388164		-0.522663861
F		-0.758146292		3.684734735		-0.162634285
F		-3.017989866		3.17791879		-2.316050987
F		-1.377503424		-1.703624381		-1.726186986
F		-2.53245618		1.453679586		0.063844057
F		-3.238038398		-1.294143242		0.592563588
F		0.611113218		-0.510975364		-3.63114402
F		-0.326457073		1.90252335		-2.356817978
F		-2.455935441		0.476042523		-2.304826264
F		-0.300328959		0.161513012		-0.3986984
