12
-186.35103317
Al		-1.701344564		2.559088653		-1.230909674
Al		-0.538732743		-0.001534169		-2.339680986
Al		-2.1938579		-0.338294329		-0.523497726
F		-0.758227407		3.684622465		-0.162729025
F		-3.018079036		3.178103645		-2.316097972
F		-1.377528644		-1.706877261		-1.726813126
F		-2.533191555		1.454136231		0.065047747
F		-3.236987883		-1.293127412		0.591445568
F		0.609951278		-0.510409694		-3.629834295
F		-0.325443798		1.903335785		-2.357533098
F		-2.456053996		0.476232338		-2.304899109
F		-0.300066754		0.161821402		-0.398402265
