12
-186.35103317
Al		-1.701358939		2.559083085		-1.230923806
Al		-0.53888322		-0.001575646		-2.339522856
Al		-2.193712286		-0.338275562		-0.523664499
F		-0.75824363		3.684600011		-0.162747973
F		-3.01809687		3.178140616		-2.316107369
F		-1.377533688		-1.707527837		-1.726938354
F		-2.53333863		1.45422756		0.065288485
F		-3.23677778		-1.292924246		0.591221964
F		0.60971889		-0.51029656		-3.62957235
F		-0.325241143		1.903498272		-2.357676122
F		-2.456077707		0.476270301		-2.304913678
F		-0.300014313		0.16188308		-0.398343038
