12
-186.35103317
Al		-1.701387689		2.559071949		-1.23095207
Al		-0.539184174		-0.0016586		-2.339206596
Al		-2.193421058		-0.338238028		-0.523998045
F		-0.758276076		3.684555103		-0.162785869
F		-3.018132538		3.178214558		-2.316126163
F		-1.377543776		-1.708828989		-1.72718881
F		-2.53363278		1.454410218		0.065769961
F		-3.236357574		-1.292517914		0.590774756
F		0.609254114		-0.510070292		-3.62904846
F		-0.324835833		1.903823246		-2.35796217
F		-2.456125129		0.476346227		-2.304942816
F		-0.299909431		0.162006436		-0.398224584
