12
-186.35103317
Al		-1.701402064		2.559066381		-1.230966202
Al		-0.539334651		-0.001700077		-2.339048466
Al		-2.193275444		-0.338219261		-0.524164818
F		-0.758292299		3.684532649		-0.162804817
F		-3.018150372		3.178251529		-2.31613556
F		-1.37754882		-1.709479565		-1.727314038
F		-2.533779855		1.454501547		0.066010699
F		-3.236147471		-1.292314748		0.590551152
F		0.609021726		-0.509957158		-3.628786515
F		-0.324633178		1.903985733		-2.358105194
F		-2.45614884		0.47638419		-2.304957385
F		-0.29985699		0.162068114		-0.398165357
