12
-186.35103317
Al		-1.701473939		2.559038541		-1.231036862
Al		-0.540087036		-0.001907462		-2.338257816
Al		-2.192547374		-0.338125426		-0.524998683
F		-0.758373414		3.684420379		-0.162899557
F		-3.018239542		3.178436384		-2.316182545
F		-1.37757404		-1.712732445		-1.727940178
F		-2.53451523		1.454958192		0.067214389
F		-3.235096956		-1.291298918		0.589433132
F		0.607859786		-0.509391488		-3.62747679
F		-0.323619903		1.904798168		-2.358820314
F		-2.456267395		0.476574005		-2.30503023
F		-0.299594785		0.162376504		-0.397869222
