12
-186.35103317
Al		-1.701488314		2.559032973		-1.231050994
Al		-0.540237513		-0.001948939		-2.338099686
Al		-2.19240176		-0.338106659		-0.525165456
F		-0.758389637		3.684397925		-0.162918505
F		-3.018257376		3.178473355		-2.316191942
F		-1.377579084		-1.713383021		-1.728065406
F		-2.534662305		1.455049521		0.067455127
F		-3.234886853		-1.291095752		0.589209528
F		0.607627398		-0.509278354		-3.627214845
F		-0.323417248		1.904960655		-2.358963338
F		-2.456291106		0.476611968		-2.305044799
F		-0.299542344		0.162438182		-0.397809995
