12
-186.35103317
Al		-1.701545814		2.559010701		-1.231107522
Al		-0.540839421		-0.002114847		-2.337467166
Al		-2.191819304		-0.338031591		-0.525832548
F		-0.758454529		3.684308109		-0.162994297
F		-3.018328712		3.178621239		-2.31622953
F		-1.37759926		-1.715985325		-1.728566318
F		-2.535250605		1.455414837		0.068418079
F		-3.234046441		-1.290283088		0.588315112
F		0.606697846		-0.508825818		-3.626167065
F		-0.322606628		1.905610603		-2.359535434
F		-2.45638595		0.47676382		-2.305103075
F		-0.29933258		0.162684894		-0.397573087
