12
-186.35103317
Al		-1.701574564		2.558999565		-1.231135786
Al		-0.541140375		-0.002197801		-2.337150906
Al		-2.191528076		-0.337994057		-0.526166094
F		-0.758486975		3.684263201		-0.163032193
F		-3.01836438		3.178695181		-2.316248324
F		-1.377609348		-1.717286477		-1.728816774
F		-2.535544755		1.455597495		0.068899555
F		-3.233626235		-1.289876756		0.587867904
F		0.60623307		-0.50859955		-3.625643175
F		-0.322201318		1.905935577		-2.359821482
F		-2.456433372		0.476839746		-2.305132213
F		-0.299227698		0.16280825		-0.397454633
