12
-186.35103317
Al		-1.701588939		2.558993997		-1.231149918
Al		-0.541290852		-0.002239278		-2.336992776
Al		-2.191382462		-0.33797529		-0.526332867
F		-0.758503198		3.684240747		-0.163051141
F		-3.018382214		3.178732152		-2.316257721
F		-1.377614392		-1.717937053		-1.728942002
F		-2.53569183		1.455688824		0.069140293
F		-3.233416132		-1.28967359		0.5876443
F		0.606000682		-0.508486416		-3.62538123
F		-0.321998663		1.906098064		-2.359964506
F		-2.456457083		0.476877709		-2.305146782
F		-0.299175257		0.162869928		-0.397395406
