12
-186.35103317
Al		-1.700740814		2.559322509		-1.23031613
Al		-0.532412709		0.000207865		-2.346322446
Al		-2.199973688		-0.339082543		-0.51649326
F		-0.757546041		3.685565533		-0.161933209
F		-3.017330008		3.176550863		-2.315703298
F		-1.377316796		-1.679553069		-1.72155355
F		-2.527014405		1.450300413		0.054936751
F		-3.245812209		-1.301660384		0.600836936
F		0.619711574		-0.515161322		-3.640835985
F		-0.333955308		1.896511331		-2.35152609
F		-2.455058134		0.474637892		-2.304287211
F		-0.302269276		0.159230926		-0.400889799
