12
-186.35103317
Al		-1.701761439		2.558927181		-1.231319502
Al		-0.543096576		-0.002737002		-2.335095216
Al		-2.189635094		-0.337750086		-0.528334143
F		-0.758697874		3.683971299		-0.163278517
F		-3.018596222		3.179175804		-2.316370485
F		-1.37767492		-1.725743965		-1.730444738
F		-2.53745673		1.456784772		0.072029149
F		-3.230894896		-1.287235598		0.584961052
F		0.603212026		-0.507128808		-3.62223789
F		-0.319566803		1.908047908		-2.361680794
F		-2.456741615		0.477333265		-2.30532161
F		-0.298545965		0.163610064		-0.396684682
