12
-186.35103317
Al		-1.700755189		2.559316941		-1.230330262
Al		-0.532563186		0.000166388		-2.346164316
Al		-2.199828074		-0.339063776		-0.516660033
F		-0.757562264		3.685543079		-0.161952157
F		-3.017347842		3.176587834		-2.315712695
F		-1.37732184		-1.680203645		-1.721678778
F		-2.52716148		1.450391742		0.055177489
F		-3.245602106		-1.301457218		0.600613332
F		0.619479186		-0.515048188		-3.64057404
F		-0.333752653		1.896673818		-2.351669114
F		-2.455081845		0.474675855		-2.30430178
F		-0.302216835		0.159292604		-0.400830572
