12
-186.35103317
Al		-1.701804564		2.558910477		-1.231361898
Al		-0.543548007		-0.002861433		-2.334620826
Al		-2.189198252		-0.337693785		-0.528834462
F		-0.758746543		3.683903937		-0.163335361
F		-3.018649724		3.179286717		-2.316398676
F		-1.377690052		-1.727695693		-1.730820422
F		-2.537897955		1.457058759		0.072751363
F		-3.230264587		-1.2866261		0.58429024
F		0.602514862		-0.506789406		-3.621452055
F		-0.318958838		1.908535369		-2.362109866
F		-2.456812748		0.477447154		-2.305365317
F		-0.298388642		0.163795098		-0.396507001
