12
-186.35103317
Al		-1.701847689		2.558893773		-1.231404294
Al		-0.543999438		-0.002985864		-2.334146436
Al		-2.18876141		-0.337637484		-0.529334781
F		-0.758795212		3.683836575		-0.163392205
F		-3.018703226		3.17939763		-2.316426867
F		-1.377705184		-1.729647421		-1.731196106
F		-2.53833918		1.457332746		0.073473577
F		-3.229634278		-1.286016602		0.583619428
F		0.601817698		-0.506450004		-3.62066622
F		-0.318350873		1.90902283		-2.362538938
F		-2.456883881		0.477561043		-2.305409024
F		-0.298231319		0.163980132		-0.39632932
