12
-186.35103317
Al		-1.701890814		2.558877069		-1.23144669
Al		-0.544450869		-0.003110295		-2.333672046
Al		-2.188324568		-0.337581183		-0.5298351
F		-0.758843881		3.683769213		-0.163449049
F		-3.018756728		3.179508543		-2.316455058
F		-1.377720316		-1.731599149		-1.73157179
F		-2.538780405		1.457606733		0.074195791
F		-3.229003969		-1.285407104		0.582948616
F		0.601120534		-0.506110602		-3.619880385
F		-0.317742908		1.909510291		-2.36296801
F		-2.456955014		0.477674932		-2.305452731
F		-0.298073996		0.164165166		-0.396151639
