12
-186.35103317
Al		-1.701933939		2.558860365		-1.231489086
Al		-0.5449023		-0.003234726		-2.333197656
Al		-2.187887726		-0.337524882		-0.530335419
F		-0.75889255		3.683701851		-0.163505893
F		-3.01881023		3.179619456		-2.316483249
F		-1.377735448		-1.733550877		-1.731947474
F		-2.53922163		1.45788072		0.074918005
F		-3.22837366		-1.284797606		0.582277804
F		0.60042337		-0.5057712		-3.61909455
F		-0.317134943		1.909997752		-2.363397082
F		-2.457026147		0.477788821		-2.305496438
F		-0.297916673		0.1643502		-0.395973958
