12
-186.35103317
Al		-1.701962689		2.558849229		-1.23151735
Al		-0.545203254		-0.00331768		-2.332881396
Al		-2.187596498		-0.337487348		-0.530668965
F		-0.758924996		3.683656943		-0.163543789
F		-3.018845898		3.179693398		-2.316502043
F		-1.377745536		-1.734852029		-1.73219793
F		-2.53951578		1.458063378		0.075399481
F		-3.227953454		-1.284391274		0.581830596
F		0.599958594		-0.505544932		-3.61857066
F		-0.316729633		1.910322726		-2.36368313
F		-2.457073569		0.477864747		-2.305525576
F		-0.297811791		0.164473556		-0.395855504
