12
-186.35103317
Al		-1.701977064		2.558843661		-1.231531482
Al		-0.545353731		-0.003359157		-2.332723266
Al		-2.187450884		-0.337468581		-0.530835738
F		-0.758941219		3.683634489		-0.163562737
F		-3.018863732		3.179730369		-2.31651144
F		-1.37775058		-1.735502605		-1.732323158
F		-2.539662855		1.458154707		0.075640219
F		-3.227743351		-1.284188108		0.581606992
F		0.599726206		-0.505431798		-3.618308715
F		-0.316526978		1.910485213		-2.363826154
F		-2.45709728		0.47790271		-2.305540145
F		-0.29775935		0.164535234		-0.395796277
