12
-186.35103317
Al		-1.701991439		2.558838093		-1.231545614
Al		-0.545504208		-0.003400634		-2.332565136
Al		-2.18730527		-0.337449814		-0.531002511
F		-0.758957442		3.683612035		-0.163581685
F		-3.018881566		3.17976734		-2.316520837
F		-1.377755624		-1.736153181		-1.732448386
F		-2.53980993		1.458246036		0.075880957
F		-3.227533248		-1.283984942		0.581383388
F		0.599493818		-0.505318664		-3.61804677
F		-0.316324323		1.9106477		-2.363969178
F		-2.457120991		0.477940673		-2.305554714
F		-0.297706909		0.164596912		-0.39573705
