12
-186.35103317
Al		-1.700438939		2.559439437		-1.230019358
Al		-0.529252692		0.001078882		-2.349643176
Al		-2.203031582		-0.33947665		-0.512991027
F		-0.757205358		3.686037067		-0.161535301
F		-3.016955494		3.175774472		-2.315505961
F		-1.377210872		-1.665890973		-1.718923762
F		-2.52392583		1.448382504		0.049881253
F		-3.250224372		-1.30592687		0.60553262
F		0.624591722		-0.517537136		-3.64633683
F		-0.338211063		1.893099104		-2.348522586
F		-2.454560203		0.473840669		-2.303981262
F		-0.303370537		0.157935688		-0.402133566
