12
-186.35103317
Al		-1.700424564		2.559445005		-1.230005226
Al		-0.529102215		0.001120359		-2.349801306
Al		-2.203177196		-0.339495417		-0.512824254
F		-0.757189135		3.686059521		-0.161516353
F		-3.01693766		3.175737501		-2.315496564
F		-1.377205828		-1.665240397		-1.718798534
F		-2.523778755		1.448291175		0.049640515
F		-3.250434475		-1.306130036		0.605756224
F		0.62482411		-0.51765027		-3.646598775
F		-0.338413718		1.892936617		-2.348379562
F		-2.454536492		0.473802706		-2.303966693
F		-0.303422978		0.15787401		-0.402192793
