12
-186.35103317
Al		-1.700367064		2.559467277		-1.229948698
Al		-0.528500307		0.001286267		-2.350433826
Al		-2.203759652		-0.339570485		-0.512157162
F		-0.757124243		3.686149337		-0.161440561
F		-3.016866324		3.175589617		-2.315458976
F		-1.377185652		-1.662638093		-1.718297622
F		-2.523190455		1.447925859		0.048677563
F		-3.251274887		-1.3069427		0.60665064
F		0.625753662		-0.518102806		-3.647646555
F		-0.339224338		1.892286669		-2.347807466
F		-2.454441648		0.473650854		-2.303908417
F		-0.303632742		0.157627298		-0.402429701
