12
-186.35103317
Al		-1.700309564		2.559489549		-1.22989217
Al		-0.527898399		0.001452175		-2.351066346
Al		-2.204342108		-0.339645553		-0.51149007
F		-0.757059351		3.686239153		-0.161364769
F		-3.016794988		3.175441733		-2.315421388
F		-1.377165476		-1.660035789		-1.71779671
F		-2.522602155		1.447560543		0.047714611
F		-3.252115299		-1.307755364		0.607545056
F		0.626683214		-0.518555342		-3.648694335
F		-0.340034958		1.891636721		-2.34723537
F		-2.454346804		0.473499002		-2.303850141
F		-0.303842506		0.157380586		-0.402666609
