12
-186.35103317
Al		-1.700597064		2.559378189		-1.23017481
Al		-0.530907939		0.000622635		-2.347903746
Al		-2.201429828		-0.339270213		-0.51482553
F		-0.757383811		3.685790073		-0.161743729
F		-3.017151668		3.176181153		-2.315609328
F		-1.377266356		-1.673047309		-1.72030127
F		-2.525543655		1.449387123		0.052529371
F		-3.247913239		-1.303692044		0.603072976
F		0.622035454		-0.516292662		-3.643455435
F		-0.335981858		1.894886461		-2.35009585
F		-2.454821024		0.474258262		-2.304141521
F		-0.302793686		0.158614146		-0.401482069
