12
-186.35103317
Al		-1.700194564		2.559534093		-1.229779114
Al		-0.526694583		0.001783991		-2.352331386
Al		-2.20550702		-0.339795689		-0.510155886
F		-0.756929567		3.686418785		-0.161213185
F		-3.016652316		3.175145965		-2.315346212
F		-1.377125124		-1.654831181		-1.716794886
F		-2.521425555		1.446829911		0.045788707
F		-3.253796123		-1.309380692		0.609333888
F		0.628542318		-0.519460414		-3.650789895
F		-0.341656198		1.890336825		-2.346091178
F		-2.454157116		0.473195298		-2.303733589
F		-0.304262034		0.156887162		-0.403140425
