12
-186.35103317
Al		-1.700137064		2.559556365		-1.229722586
Al		-0.526092675		0.001949899		-2.352963906
Al		-2.206089476		-0.339870757		-0.509488794
F		-0.756864675		3.686508601		-0.161137393
F		-3.01658098		3.174998081		-2.315308624
F		-1.377104948		-1.652228877		-1.716293974
F		-2.520837255		1.446464595		0.044825755
F		-3.254636535		-1.310193356		0.610228304
F		0.62947187		-0.51991295		-3.651837675
F		-0.342466818		1.889686877		-2.345519082
F		-2.454062272		0.473043446		-2.303675313
F		-0.304471798		0.15664045		-0.403377333
