12
-186.35103317
Al		-1.700122689		2.559561933		-1.229708454
Al		-0.525942198		0.001991376		-2.353122036
Al		-2.20623509		-0.339889524		-0.509322021
F		-0.756848452		3.686531055		-0.161118445
F		-3.016563146		3.17496111		-2.315299227
F		-1.377099904		-1.651578301		-1.716168746
F		-2.52069018		1.446373266		0.044585017
F		-3.254846638		-1.310396522		0.610451908
F		0.629704258		-0.520026084		-3.65209962
F		-0.342669473		1.88952439		-2.345376058
F		-2.454038561		0.473005483		-2.303660744
F		-0.304524239		0.156578772		-0.40343656
