12
-186.35103317
Al		-1.700050814		2.559589773		-1.229637794
Al		-0.525189813		0.002198761		-2.353912686
Al		-2.20696316		-0.339983359		-0.508488156
F		-0.756767337		3.686643325		-0.161023705
F		-3.016473976		3.174776255		-2.315252242
F		-1.377074684		-1.648325421		-1.715542606
F		-2.519954805		1.445916621		0.043381327
F		-3.255897153		-1.311412352		0.611569928
F		0.630866198		-0.520591754		-3.653409345
F		-0.343682748		1.888711955		-2.344660938
F		-2.453920006		0.472815668		-2.303587899
F		-0.304786444		0.156270382		-0.403732695
