12
-186.35103317
Al		-1.699978939		2.559617613		-1.229567134
Al		-0.524437428		0.002406146		-2.354703336
Al		-2.20769123		-0.340077194		-0.507654291
F		-0.756686222		3.686755595		-0.160928965
F		-3.016384806		3.1745914		-2.315205257
F		-1.377049464		-1.645072541		-1.714916466
F		-2.51921943		1.445459976		0.042177637
F		-3.256947668		-1.312428182		0.612687948
F		0.632028138		-0.521157424		-3.65471907
F		-0.344696023		1.88789952		-2.343945818
F		-2.453801451		0.472625853		-2.303515054
F		-0.305048649		0.155961992		-0.40402883
