12
-186.35103317
Al		-1.699950189		2.559628749		-1.22953887
Al		-0.524136474		0.0024891		-2.355019596
Al		-2.207982458		-0.340114728		-0.507320745
F		-0.756653776		3.686800503		-0.160891069
F		-3.016349138		3.174517458		-2.315186463
F		-1.377039376		-1.643771389		-1.71466601
F		-2.51892528		1.445277318		0.041696161
F		-3.257367874		-1.312834514		0.613135156
F		0.632492914		-0.521383692		-3.65524296
F		-0.345101333		1.887574546		-2.34365977
F		-2.453754029		0.472549927		-2.303485916
F		-0.305153531		0.155838636		-0.404147284
