12
-186.35103317
Al		-1.699921439		2.559639885		-1.229510606
Al		-0.52383552		0.002572054		-2.355335856
Al		-2.208273686		-0.340152262		-0.506987199
F		-0.75662133		3.686845411		-0.160853173
F		-3.01631347		3.174443516		-2.315167669
F		-1.377029288		-1.642470237		-1.714415554
F		-2.51863113		1.44509466		0.041214685
F		-3.25778808		-1.313240846		0.613582364
F		0.63295769		-0.52160996		-3.65576685
F		-0.345506643		1.887249572		-2.343373722
F		-2.453706607		0.472474001		-2.303456778
F		-0.305258413		0.15571528		-0.404265738
