12
-186.35103317
Al		-1.699892689		2.559651021		-1.229482342
Al		-0.523534566		0.002655008		-2.355652116
Al		-2.208564914		-0.340189796		-0.506653653
F		-0.756588884		3.686890319		-0.160815277
F		-3.016277802		3.174369574		-2.315148875
F		-1.3770192		-1.641169085		-1.714165098
F		-2.51833698		1.444912002		0.040733209
F		-3.258208286		-1.313647178		0.614029572
F		0.633422466		-0.521836228		-3.65629074
F		-0.345911953		1.886924598		-2.343087674
F		-2.453659185		0.472398075		-2.30342764
F		-0.305363295		0.155591924		-0.404384192
