12
-186.35103317
Al		-1.699863939		2.559662157		-1.229454078
Al		-0.523233612		0.002737962		-2.355968376
Al		-2.208856142		-0.34022733		-0.506320107
F		-0.756556438		3.686935227		-0.160777381
F		-3.016242134		3.174295632		-2.315130081
F		-1.377009112		-1.639867933		-1.713914642
F		-2.51804283		1.444729344		0.040251733
F		-3.258628492		-1.31405351		0.61447678
F		0.633887242		-0.522062496		-3.65681463
F		-0.346317263		1.886599624		-2.342801626
F		-2.453611763		0.472322149		-2.303398502
F		-0.305468177		0.155468568		-0.404502646
