12
-186.35103317
Al		-1.699849564		2.559667725		-1.229439946
Al		-0.523083135		0.002779439		-2.356126506
Al		-2.209001756		-0.340246097		-0.506153334
F		-0.756540215		3.686957681		-0.160758433
F		-3.0162243		3.174258661		-2.315120684
F		-1.377004068		-1.639217357		-1.713789414
F		-2.517895755		1.444638015		0.040010995
F		-3.258838595		-1.314256676		0.614700384
F		0.63411963		-0.52217563		-3.657076575
F		-0.346519918		1.886437137		-2.342658602
F		-2.453588052		0.472284186		-2.303383933
F		-0.305520618		0.15540689		-0.404561873
