12
-186.35103317
Al		-1.699835189		2.559673293		-1.229425814
Al		-0.522932658		0.002820916		-2.356284636
Al		-2.20914737		-0.340264864		-0.505986561
F		-0.756523992		3.686980135		-0.160739485
F		-3.016206466		3.17422169		-2.315111287
F		-1.376999024		-1.638566781		-1.713664186
F		-2.51774868		1.444546686		0.039770257
F		-3.259048698		-1.314459842		0.614923988
F		0.634352018		-0.522288764		-3.65733852
F		-0.346722573		1.88627465		-2.342515578
F		-2.453564341		0.472246223		-2.303369364
F		-0.305573059		0.155345212		-0.4046211
