12
-186.35103317
Al		-1.699763314		2.559701133		-1.229355154
Al		-0.522180273		0.003028301		-2.357075286
Al		-2.20987544		-0.340358699		-0.505152696
F		-0.756442877		3.687092405		-0.160644745
F		-3.016117296		3.174036835		-2.315064302
F		-1.376973804		-1.635313901		-1.713038046
F		-2.517013305		1.444090041		0.038566567
F		-3.260099213		-1.315475672		0.616042008
F		0.635513958		-0.522854434		-3.658648245
F		-0.347735848		1.885462215		-2.341800458
F		-2.453445786		0.472056408		-2.303296519
F		-0.305835264		0.155036822		-0.404917235
