12
-186.35103317
Al		-1.699691439		2.559728973		-1.229284494
Al		-0.521427888		0.003235686		-2.357865936
Al		-2.21060351		-0.340452534		-0.504318831
F		-0.756361762		3.687204675		-0.160550005
F		-3.016028126		3.17385198		-2.315017317
F		-1.376948584		-1.632061021		-1.712411906
F		-2.51627793		1.443633396		0.037362877
F		-3.261149728		-1.316491502		0.617160028
F		0.636675898		-0.523420104		-3.65995797
F		-0.348749123		1.88464978		-2.341085338
F		-2.453327231		0.471866593		-2.303223674
F		-0.306097469		0.154728432		-0.40521337
