12
-186.35103317
Al		-1.699677064		2.559734541		-1.229270362
Al		-0.521277411		0.003277163		-2.358024066
Al		-2.210749124		-0.340471301		-0.504152058
F		-0.756345539		3.687227129		-0.160531057
F		-3.016010292		3.173815009		-2.31500792
F		-1.37694354		-1.631410445		-1.712286678
F		-2.516130855		1.443542067		0.037122139
F		-3.261359831		-1.316694668		0.617383632
F		0.636908286		-0.523533238		-3.660219915
F		-0.348951778		1.884487293		-2.340942314
F		-2.45330352		0.47182863		-2.303209105
F		-0.30614991		0.154666754		-0.405272597
