12
-186.35103317
Al		-1.699590814		2.559767949		-1.22918557
Al		-0.520374549		0.003526025		-2.358972846
Al		-2.211622808		-0.340583903		-0.50315142
F		-0.756248201		3.687361853		-0.160417369
F		-3.015903288		3.173593183		-2.314951538
F		-1.376913276		-1.627506989		-1.71153531
F		-2.515248405		1.442994093		0.035677711
F		-3.262620449		-1.317913664		0.618725256
F		0.638302614		-0.524212042		-3.661791585
F		-0.350167708		1.883512371		-2.34008417
F		-2.453161254		0.471600852		-2.303121691
F		-0.306464556		0.154296686		-0.405627959
