12
-186.35103317
Al		-1.699518939		2.559795789		-1.22911491
Al		-0.519622164		0.00373341		-2.359763496
Al		-2.212350878		-0.340677738		-0.502317555
F		-0.756167086		3.687474123		-0.160322629
F		-3.015814118		3.173408328		-2.314904553
F		-1.376888056		-1.624254109		-1.71090917
F		-2.51451303		1.442537448		0.034474021
F		-3.263670964		-1.318929494		0.619843276
F		0.639464554		-0.524777712		-3.66310131
F		-0.351180983		1.882699936		-2.33936905
F		-2.453042699		0.471411037		-2.303048846
F		-0.306726761		0.153988296		-0.405924094
