12
-186.35103317
Al		-1.699504564		2.559801357		-1.229100778
Al		-0.519471687		0.003774887		-2.359921626
Al		-2.212496492		-0.340696505		-0.502150782
F		-0.756150863		3.687496577		-0.160303681
F		-3.015796284		3.173371357		-2.314895156
F		-1.376883012		-1.623603533		-1.710783942
F		-2.514365955		1.442446119		0.034233283
F		-3.263881067		-1.31913266		0.62006688
F		0.639696942		-0.524890846		-3.663363255
F		-0.351383638		1.882537449		-2.339226026
F		-2.453018988		0.471373074		-2.303034277
F		-0.306779202		0.153926618		-0.405983321
