12
-186.35103317
Al		-1.699418314		2.559834765		-1.229015986
Al		-0.518568825		0.004023749		-2.360870406
Al		-2.213370176		-0.340809107		-0.501150144
F		-0.756053525		3.687631301		-0.160189993
F		-3.01568928		3.173149531		-2.314838774
F		-1.376852748		-1.619700077		-1.710032574
F		-2.513483505		1.441898145		0.032788855
F		-3.265141685		-1.320351656		0.621408504
F		0.64109127		-0.52556965		-3.664934925
F		-0.352599568		1.881562527		-2.338367882
F		-2.452876722		0.471145296		-2.302946863
F		-0.307093848		0.15355655		-0.406338683
