12
-186.35103317
Al		-1.699403939		2.559840333		-1.229001854
Al		-0.518418348		0.004065226		-2.361028536
Al		-2.21351579		-0.340827874		-0.500983371
F		-0.756037302		3.687653755		-0.160171045
F		-3.015671446		3.17311256		-2.314829377
F		-1.376847704		-1.619049501		-1.709907346
F		-2.51333643		1.441806816		0.032548117
F		-3.265351788		-1.320554822		0.621632108
F		0.641323658		-0.525682784		-3.66519687
F		-0.352802223		1.88140004		-2.338224858
F		-2.452853011		0.471107333		-2.302932294
F		-0.307146289		0.153494872		-0.40639791
