12
-186.35103317
Al		-1.699375189		2.559851469		-1.22897359
Al		-0.518117394		0.00414818		-2.361344796
Al		-2.213807018		-0.340865408		-0.500649825
F		-0.756004856		3.687698663		-0.160133149
F		-3.015635778		3.173038618		-2.314810583
F		-1.376837616		-1.617748349		-1.70965689
F		-2.51304228		1.441624158		0.032066641
F		-3.265771994		-1.320961154		0.622079316
F		0.641788434		-0.525909052		-3.66572076
F		-0.353207533		1.881075066		-2.33793881
F		-2.452805589		0.471031407		-2.302903156
F		-0.307251171		0.153371516		-0.406516364
