12
-186.35103317
Al		-1.699360814		2.559857037		-1.228959458
Al		-0.517966917		0.004189657		-2.361502926
Al		-2.213952632		-0.340884175		-0.500483052
F		-0.755988633		3.687721117		-0.160114201
F		-3.015617944		3.173001647		-2.314801186
F		-1.376832572		-1.617097773		-1.709531662
F		-2.512895205		1.441532829		0.031825903
F		-3.265982097		-1.32116432		0.62230292
F		0.642020822		-0.526022186		-3.665982705
F		-0.353410188		1.880912579		-2.337795786
F		-2.452781878		0.470993444		-2.302888587
F		-0.307303612		0.153309838		-0.406575591
