12
-186.35103317
Al		-1.699303314		2.559879309		-1.22890293
Al		-0.517365009		0.004355565		-2.362135446
Al		-2.214535088		-0.340959243		-0.49981596
F		-0.755923741		3.687810933		-0.160038409
F		-3.015546608		3.172853763		-2.314763598
F		-1.376812396		-1.614495469		-1.70903075
F		-2.512306905		1.441167513		0.030862951
F		-3.266822509		-1.321976984		0.623197336
F		0.642950374		-0.526474722		-3.667030485
F		-0.354220808		1.880262631		-2.33722369
F		-2.452687034		0.470841592		-2.302830311
F		-0.307513376		0.153063126		-0.406812499
