12
-186.35103317
Al		-1.699260189		2.559896013		-1.228860534
Al		-0.516913578		0.004479996		-2.362609836
Al		-2.21497193		-0.341015544		-0.499315641
F		-0.755875072		3.687878295		-0.159981565
F		-3.015493106		3.17274285		-2.314735407
F		-1.376797264		-1.612543741		-1.708655066
F		-2.51186568		1.440893526		0.030140737
F		-3.267452818		-1.322586482		0.623868148
F		0.643647538		-0.526814124		-3.66781632
F		-0.354828773		1.87977517		-2.336794618
F		-2.452615901		0.470727703		-2.302786604
F		-0.307670699		0.152878092		-0.40699018
