12
-186.35103317
Al		-1.699231439		2.559907149		-1.22883227
Al		-0.516612624		0.00456295		-2.362926096
Al		-2.215263158		-0.341053078		-0.498982095
F		-0.755842626		3.687923203		-0.159943669
F		-3.015457438		3.172668908		-2.314716613
F		-1.376787176		-1.611242589		-1.70840461
F		-2.51157153		1.440710868		0.029659261
F		-3.267873024		-1.322992814		0.624315356
F		0.644112314		-0.527040392		-3.66834021
F		-0.355234083		1.879450196		-2.33650857
F		-2.452568479		0.470651777		-2.302757466
F		-0.307775581		0.152754736		-0.407108634
