12
-186.35103317
Al		-1.701748759		2.557839895		-1.231509606
Al		-0.53057832		0.000471564		-2.347071456
Al		-2.200552976		-0.339309942		-0.514593719
F		-0.75616853		3.681100561		-0.161505753
F		-3.01828334		3.174450466		-2.316961549
F		-1.377807928		-1.674881817		-1.721134974
F		-2.5264159		1.44944999		0.053438075
F		-3.24945125		-1.298624656		0.604621264
F		0.62246221		-0.51082551		-3.64406309
F		-0.335200483		1.895285782		-2.351001672
F		-2.454133927		0.474758801		-2.303422538
F		-0.301885973		0.15743201		-0.400874048
