12
-186.35103317
Al		-1.702413901		2.556926941		-1.232285046
Al		-0.53010969		0.00045558		-2.346856716
Al		-2.20028897		-0.33936756		-0.514154441
F		-0.75541016		3.678327271		-0.161328861
F		-3.018930242		3.173345506		-2.317755967
F		-1.378123792		-1.674811485		-1.721409786
F		-2.526674512		1.449323318		0.053549969
F		-3.250752242		-1.295949922		0.605952724
F		0.623136562		-0.50774886		-3.644899184
F		-0.335096437		1.895232898		-2.351287722
F		-2.453678989		0.474990791		-2.302964924
F		-0.301435739		0.156611708		-0.400615844
