12
-186.35103317
Al		-1.702524758		2.556774782		-1.232414286
Al		-0.530031585		0.000452916		-2.346820926
Al		-2.200244969		-0.339377163		-0.514081228
F		-0.755283765		3.677865056		-0.161299379
F		-3.019038059		3.173161346		-2.31788837
F		-1.378176436		-1.674799763		-1.721455588
F		-2.526717614		1.449302206		0.053568618
F		-3.250969074		-1.295504133		0.606174634
F		0.623248954		-0.507236085		-3.645038533
F		-0.335079096		1.895224084		-2.351335397
F		-2.453603166		0.475029456		-2.302888655
F		-0.3013607		0.156474991		-0.40057281
