12
-186.35103317
Al		-1.702746472		2.556470464		-1.232672766
Al		-0.529875375		0.000447588		-2.346749346
Al		-2.200156967		-0.339396369		-0.513934802
F		-0.755030975		3.676940626		-0.161240415
F		-3.019253693		3.172793026		-2.318153176
F		-1.378281724		-1.674776319		-1.721547192
F		-2.526803818		1.449259982		0.053605916
F		-3.251402738		-1.294612555		0.606618454
F		0.623473738		-0.506210535		-3.645317231
F		-0.335044414		1.895206456		-2.351430747
F		-2.45345152		0.475106786		-2.302736117
F		-0.301210622		0.156201557		-0.400486742
