12
-186.35103317
Al		-1.7031899		2.555861828		-1.233189726
Al		-0.529562955		0.000436932		-2.346606186
Al		-2.199980963		-0.339434781		-0.51364195
F		-0.754525395		3.675091766		-0.161122487
F		-3.019684961		3.172056386		-2.318682788
F		-1.3784923		-1.674729431		-1.7217304
F		-2.526976226		1.449175534		0.053680512
F		-3.252270066		-1.292829399		0.607506094
F		0.623923306		-0.504159435		-3.645874627
F		-0.33497505		1.8951712		-2.351621447
F		-2.453148228		0.475261446		-2.302431041
F		-0.300910466		0.155654689		-0.400314606
