12
-186.35103317
Al		-1.703411614		2.55555751		-1.233448206
Al		-0.529406745		0.000431604		-2.346534606
Al		-2.199892961		-0.339453987		-0.513495524
F		-0.754272605		3.674167336		-0.161063523
F		-3.019900595		3.171688066		-2.318947594
F		-1.378597588		-1.674705987		-1.721822004
F		-2.52706243		1.44913331		0.05371781
F		-3.25270373		-1.291937821		0.607949914
F		0.62414809		-0.503133885		-3.646153325
F		-0.334940368		1.895153572		-2.351716797
F		-2.452996582		0.475338776		-2.302278503
F		-0.300760388		0.155381255		-0.400228538
