12
-186.35103317
Al		-1.703744185		2.555101033		-1.233835926
Al		-0.52917243		0.000423612		-2.346427236
Al		-2.199760958		-0.339482796		-0.513275885
F		-0.75389342		3.672780691		-0.160975077
F		-3.020224046		3.171135586		-2.319344803
F		-1.37875552		-1.674670821		-1.72195941
F		-2.527191736		1.449069974		0.053773757
F		-3.253354226		-1.290600454		0.608615644
F		0.624485266		-0.50159556		-3.646571372
F		-0.334888345		1.89512713		-2.351859822
F		-2.452769113		0.475454771		-2.302049696
F		-0.300535271		0.154971104		-0.400099436
