12
-186.35103317
Al		-1.704187613		2.554492397		-1.234352886
Al		-0.52886001		0.000412956		-2.346284076
Al		-2.199584954		-0.339521208		-0.512983033
F		-0.75338784		3.670931831		-0.160857149
F		-3.020655314		3.170398946		-2.319874415
F		-1.378966096		-1.674623933		-1.722142618
F		-2.527364144		1.448985526		0.053848353
F		-3.254221554		-1.288817298		0.609503284
F		0.624934834		-0.49954446		-3.647128768
F		-0.334818981		1.895091874		-2.352050522
F		-2.452465821		0.475609431		-2.30174462
F		-0.300235115		0.154424236		-0.3999273
