12
-186.35103317
Al		-1.70429847		2.554340238		-1.234482126
Al		-0.528781905		0.000410292		-2.346248286
Al		-2.199540953		-0.339530811		-0.51290982
F		-0.753261445		3.670469616		-0.160827667
F		-3.020763131		3.170214786		-2.320006818
F		-1.37901874		-1.674612211		-1.72218842
F		-2.527407246		1.448964414		0.053867002
F		-3.254438386		-1.288371509		0.609725194
F		0.625047226		-0.499031685		-3.647268117
F		-0.33480164		1.89508306		-2.352098197
F		-2.452389998		0.475648096		-2.301668351
F		-0.300160076		0.154287519		-0.399884266
