12
-186.35103317
Al		-1.704520184		2.55403592		-1.234740606
Al		-0.528625695		0.000404964		-2.346176706
Al		-2.199452951		-0.339550017		-0.512763394
F		-0.753008655		3.669545186		-0.160768703
F		-3.020978765		3.169846466		-2.320271624
F		-1.379124028		-1.674588767		-1.722280024
F		-2.52749345		1.44892219		0.0539043
F		-3.25487205		-1.287479931		0.610169014
F		0.62527201		-0.498006135		-3.647546815
F		-0.334766958		1.895065432		-2.352193547
F		-2.452238352		0.475725426		-2.301515813
F		-0.300009998		0.154014085		-0.399798198
