12
-186.35103317
Al		-1.705185326		2.553122966		-1.235516046
Al		-0.528157065		0.00038898		-2.345961966
Al		-2.199188945		-0.339607635		-0.512324116
F		-0.752250285		3.666771896		-0.160591811
F		-3.021625667		3.168741506		-2.321066042
F		-1.379439892		-1.674518435		-1.722554836
F		-2.527752062		1.448795518		0.054016194
F		-3.256173042		-1.284805197		0.611500474
F		0.625946362		-0.494929485		-3.648382909
F		-0.334662912		1.895012548		-2.352479597
F		-2.451783414		0.475957416		-2.301058199
F		-0.299559764		0.153193783		-0.399539994
