12
-186.35103317
Al		-1.705517897		2.552666489		-1.235903766
Al		-0.52792275		0.000380988		-2.345854596
Al		-2.199056942		-0.339636444		-0.512104477
F		-0.7518711		3.665385251		-0.160503365
F		-3.021949118		3.168189026		-2.321463251
F		-1.379597824		-1.674483269		-1.722692242
F		-2.527881368		1.448732182		0.054072141
F		-3.256823538		-1.28346783		0.612166204
F		0.626283538		-0.49339116		-3.648800956
F		-0.334610889		1.894986106		-2.352622622
F		-2.451555945		0.476073411		-2.300829392
F		-0.299334647		0.152783632		-0.399410892
