12
-186.35103317
Al		-1.705850468		2.552210012		-1.236291486
Al		-0.527688435		0.000372996		-2.345747226
Al		-2.198924939		-0.339665253		-0.511884838
F		-0.751491915		3.663998606		-0.160414919
F		-3.022272569		3.167636546		-2.32186046
F		-1.379755756		-1.674448103		-1.722829648
F		-2.528010674		1.448668846		0.054128088
F		-3.257474034		-1.282130463		0.612831934
F		0.626620714		-0.491852835		-3.649219003
F		-0.334558866		1.894959664		-2.352765647
F		-2.451328476		0.476189406		-2.300600585
F		-0.29910953		0.152373481		-0.39928179
