12
-186.35103317
Al		-1.705961325		2.552057853		-1.236420726
Al		-0.52761033		0.000370332		-2.345711436
Al		-2.198880938		-0.339674856		-0.511811625
F		-0.75136552		3.663536391		-0.160385437
F		-3.022380386		3.167452386		-2.321992863
F		-1.3798084		-1.674436381		-1.72287545
F		-2.528053776		1.448647734		0.054146737
F		-3.257690866		-1.281684674		0.613053844
F		0.626733106		-0.49134006		-3.649358352
F		-0.334541525		1.89495085		-2.352813322
F		-2.451252653		0.476228071		-2.300524316
F		-0.299034491		0.152236764		-0.399238756
