12
-186.35103317
Al		-1.706183039		2.551753535		-1.236679206
Al		-0.52745412		0.000365004		-2.345639856
Al		-2.198792936		-0.339694062		-0.511665199
F		-0.75111273		3.662611961		-0.160326473
F		-3.02259602		3.167084066		-2.322257669
F		-1.379913688		-1.674412937		-1.722967054
F		-2.52813998		1.44860551		0.054184035
F		-3.25812453		-1.280793096		0.613497664
F		0.62695789		-0.49031451		-3.64963705
F		-0.334506843		1.894933222		-2.352908672
F		-2.451101007		0.476305401		-2.300371778
F		-0.298884413		0.15196333		-0.399152688
