12
-186.35103317
Al		-1.706404753		2.551449217		-1.236937686
Al		-0.52729791		0.000359676		-2.345568276
Al		-2.198704934		-0.339713268		-0.511518773
F		-0.75085994		3.661687531		-0.160267509
F		-3.022811654		3.166715746		-2.322522475
F		-1.380018976		-1.674389493		-1.723058658
F		-2.528226184		1.448563286		0.054221333
F		-3.258558194		-1.279901518		0.613941484
F		0.627182674		-0.48928896		-3.649915748
F		-0.334472161		1.894915594		-2.353004022
F		-2.450949361		0.476382731		-2.30021924
F		-0.298734335		0.151689896		-0.39906662
