12
-186.35103317
Al		-1.706626467		2.551144899		-1.237196166
Al		-0.5271417		0.000354348		-2.345496696
Al		-2.198616932		-0.339732474		-0.511372347
F		-0.75060715		3.660763101		-0.160208545
F		-3.023027288		3.166347426		-2.322787281
F		-1.380124264		-1.674366049		-1.723150262
F		-2.528312388		1.448521062		0.054258631
F		-3.258991858		-1.27900994		0.614385304
F		0.627407458		-0.48826341		-3.650194446
F		-0.334437479		1.894897966		-2.353099372
F		-2.450797715		0.476460061		-2.300066702
F		-0.298584257		0.151416462		-0.398980552
