12
-186.35103317
Al		-1.706848181		2.550840581		-1.237454646
Al		-0.52698549		0.00034902		-2.345425116
Al		-2.19852893		-0.33975168		-0.511225921
F		-0.75035436		3.659838671		-0.160149581
F		-3.023242922		3.165979106		-2.323052087
F		-1.380229552		-1.674342605		-1.723241866
F		-2.528398592		1.448478838		0.054295929
F		-3.259425522		-1.278118362		0.614829124
F		0.627632242		-0.48723786		-3.650473144
F		-0.334402797		1.894880338		-2.353194722
F		-2.450646069		0.476537391		-2.299914164
F		-0.298434179		0.151143028		-0.398894484
