12
-186.35103317
Al		-1.706959038		2.550688422		-1.237583886
Al		-0.526907385		0.000346356		-2.345389326
Al		-2.198484929		-0.339761283		-0.511152708
F		-0.750227965		3.659376456		-0.160120099
F		-3.023350739		3.165794946		-2.32318449
F		-1.380282196		-1.674330883		-1.723287668
F		-2.528441694		1.448457726		0.054314578
F		-3.259642354		-1.277672573		0.615051034
F		0.627744634		-0.486725085		-3.650612493
F		-0.334385456		1.894871524		-2.353242397
F		-2.450570246		0.476576056		-2.299837895
F		-0.29835914		0.151006311		-0.39885145
