12
-186.35103317
Al		-1.707069895		2.550536263		-1.237713126
Al		-0.52682928		0.000343692		-2.345353536
Al		-2.198440928		-0.339770886		-0.511079495
F		-0.75010157		3.658914241		-0.160090617
F		-3.023458556		3.165610786		-2.323316893
F		-1.38033484		-1.674319161		-1.72333347
F		-2.528484796		1.448436614		0.054333227
F		-3.259859186		-1.277226784		0.615272944
F		0.627857026		-0.48621231		-3.650751842
F		-0.334368115		1.89486271		-2.353290072
F		-2.450494423		0.476614721		-2.299761626
F		-0.298284101		0.150869594		-0.398808416
