12
-186.35103317
Al		-1.701305331		2.558448531		-1.230992646
Al		-0.53089074		0.00048222		-2.347214616
Al		-2.20072898		-0.33927153		-0.514886571
F		-0.75667411		3.682949421		-0.161623681
F		-3.017852072		3.175187106		-2.316431937
F		-1.377597352		-1.674928705		-1.720951766
F		-2.526243492		1.449534438		0.053363479
F		-3.248583922		-1.300407812		0.603733624
F		0.622012642		-0.51287661		-3.643505694
F		-0.335269847		1.895321038		-2.350810972
F		-2.454437219		0.474604141		-2.303727614
F		-0.302186129		0.157978878		-0.401046184
