12
-186.35103317
Al		-1.707291609		2.550231945		-1.237971606
Al		-0.52667307		0.000338364		-2.345281956
Al		-2.198352926		-0.339790092		-0.510933069
F		-0.74984878		3.657989811		-0.160031653
F		-3.02367419		3.165242466		-2.323581699
F		-1.380440128		-1.674295717		-1.723425074
F		-2.528571		1.44839439		0.054370525
F		-3.26029285		-1.276335206		0.615716764
F		0.62808181		-0.48518676		-3.65103054
F		-0.334333433		1.894845082		-2.353385422
F		-2.450342777		0.476692051		-2.299609088
F		-0.298134023		0.15059616		-0.398722348
