12
-186.35103317
Al		-1.708067608		2.549166832		-1.238876286
Al		-0.526126335		0.000319716		-2.345031426
Al		-2.198044919		-0.339857313		-0.510420578
F		-0.748964015		3.654754306		-0.159825279
F		-3.024428909		3.163953346		-2.32450852
F		-1.380808636		-1.674213663		-1.723745688
F		-2.528872714		1.448246606		0.054501068
F		-3.261810674		-1.273214683		0.617270134
F		0.628868554		-0.481597335		-3.652005983
F		-0.334212046		1.894783384		-2.353719147
F		-2.449812016		0.476962706		-2.299075205
F		-0.29760875		0.149639141		-0.39842111
