12
-186.35103317
Al		-1.708178465		2.549014673		-1.239005526
Al		-0.52604823		0.000317052		-2.344995636
Al		-2.198000918		-0.339866916		-0.510347365
F		-0.74883762		3.654292091		-0.159795797
F		-3.024536726		3.163769186		-2.324640923
F		-1.38086128		-1.674201941		-1.72379149
F		-2.528915816		1.448225494		0.054519717
F		-3.262027506		-1.272768894		0.617492044
F		0.628980946		-0.48108456		-3.652145332
F		-0.334194705		1.89477457		-2.353766822
F		-2.449736193		0.477001371		-2.298998936
F		-0.297533711		0.149502424		-0.398378076
