12
-186.35103317
Al		-1.708511036		2.548558196		-1.239393246
Al		-0.525813915		0.00030906		-2.344888266
Al		-2.197868915		-0.339895725		-0.510127726
F		-0.748458435		3.652905446		-0.159707351
F		-3.024860177		3.163216706		-2.325038132
F		-1.381019212		-1.674166775		-1.723928896
F		-2.529045122		1.448162158		0.054575664
F		-3.262678002		-1.271431527		0.618157774
F		0.629318122		-0.479546235		-3.652563379
F		-0.334142682		1.894748128		-2.353909847
F		-2.449508724		0.477117366		-2.298770129
F		-0.297308594		0.149092273		-0.398248974
