12
-186.35103317
Al		-1.70873275		2.548253878		-1.239651726
Al		-0.525657705		0.000303732		-2.344816686
Al		-2.197780913		-0.339914931		-0.5099813
F		-0.748205645		3.651981016		-0.159648387
F		-3.025075811		3.162848386		-2.325302938
F		-1.3811245		-1.674143331		-1.7240205
F		-2.529131326		1.448119934		0.054612962
F		-3.263111666		-1.270539949		0.618601594
F		0.629542906		-0.478520685		-3.652842077
F		-0.334108		1.8947305		-2.354005197
F		-2.449357078		0.477194696		-2.298617591
F		-0.297158516		0.148818839		-0.398162906
