12
-186.35103317
Al		-1.708954464		2.54794956		-1.239910206
Al		-0.525501495		0.000298404		-2.344745106
Al		-2.197692911		-0.339934137		-0.509834874
F		-0.747952855		3.651056586		-0.159589423
F		-3.025291445		3.162480066		-2.325567744
F		-1.381229788		-1.674119887		-1.724112104
F		-2.52921753		1.44807771		0.05465026
F		-3.26354533		-1.269648371		0.619045414
F		0.62976769		-0.477495135		-3.653120775
F		-0.334073318		1.894712872		-2.354100547
F		-2.449205432		0.477272026		-2.298465053
F		-0.297008438		0.148545405		-0.398076838
