12
-186.35103317
Al		-1.709065321		2.547797401		-1.240039446
Al		-0.52542339		0.00029574		-2.344709316
Al		-2.19764891		-0.33994374		-0.509761661
F		-0.74782646		3.650594371		-0.159559941
F		-3.025399262		3.162295906		-2.325700147
F		-1.381282432		-1.674108165		-1.724157906
F		-2.529260632		1.448056598		0.054668909
F		-3.263762162		-1.269202582		0.619267324
F		0.629880082		-0.47698236		-3.653260124
F		-0.334055977		1.894704058		-2.354148222
F		-2.449129609		0.477310691		-2.298388784
F		-0.296933399		0.148408688		-0.398033804
