12
-186.35103317
Al		-1.709508749		2.547188765		-1.240556406
Al		-0.52511097		0.000285084		-2.344566156
Al		-2.197472906		-0.339982152		-0.509468809
F		-0.74732088		3.648745511		-0.159442013
F		-3.02583053		3.161559266		-2.326229759
F		-1.381493008		-1.674061277		-1.724341114
F		-2.52943304		1.44797215		0.054743505
F		-3.26462949		-1.267419426		0.620154964
F		0.63032965		-0.47493126		-3.65381752
F		-0.333986613		1.894668802		-2.354338922
F		-2.448826317		0.477465351		-2.298083708
F		-0.296633243		0.14786182		-0.397861668
