12
-186.35103317
Al		-1.709952177		2.546580129		-1.241073366
Al		-0.52479855		0.000274428		-2.344422996
Al		-2.197296902		-0.340020564		-0.509175957
F		-0.7468153		3.646896651		-0.159324085
F		-3.026261798		3.160822626		-2.326759371
F		-1.381703584		-1.674014389		-1.724524322
F		-2.529605448		1.447887702		0.054818101
F		-3.265496818		-1.26563627		0.621042604
F		0.630779218		-0.47288016		-3.654374916
F		-0.333917249		1.894633546		-2.354529622
F		-2.448523025		0.477620011		-2.297778632
F		-0.296333087		0.147314952		-0.397689532
