12
-186.35103317
Al		-1.710063034		2.54642797		-1.241202606
Al		-0.524720445		0.000271764		-2.344387206
Al		-2.197252901		-0.340030167		-0.509102744
F		-0.746688905		3.646434436		-0.159294603
F		-3.026369615		3.160638466		-2.326891774
F		-1.381756228		-1.674002667		-1.724570124
F		-2.52964855		1.44786659		0.05483675
F		-3.26571365		-1.265190481		0.621264514
F		0.63089161		-0.472367385		-3.654514265
F		-0.333899908		1.894624732		-2.354577297
F		-2.448447202		0.477658676		-2.297702363
F		-0.296258048		0.147178235		-0.397646498
