12
-186.35103317
Al		-1.710395605		2.545971493		-1.241590326
Al		-0.52448613		0.000263772		-2.344279836
Al		-2.197120898		-0.340058976		-0.508883105
F		-0.74630972		3.645047791		-0.159206157
F		-3.026693066		3.160085986		-2.327288983
F		-1.38191416		-1.673967501		-1.72470753
F		-2.529777856		1.447803254		0.054892697
F		-3.266364146		-1.263853114		0.621930244
F		0.631228786		-0.47082906		-3.654932312
F		-0.333847885		1.89459829		-2.354720322
F		-2.448219733		0.477774671		-2.297473556
F		-0.296032931		0.146768084		-0.397517396
