12
-186.35103317
Al		-1.710839033		2.545362857		-1.242107286
Al		-0.52417371		0.000253116		-2.344136676
Al		-2.196944894		-0.340097388		-0.508590253
F		-0.74580414		3.643198931		-0.159088229
F		-3.027124334		3.159349346		-2.327818595
F		-1.382124736		-1.673920613		-1.724890738
F		-2.529950264		1.447718806		0.054967293
F		-3.267231474		-1.262069958		0.622817884
F		0.631678354		-0.46877796		-3.655489708
F		-0.333778521		1.894563034		-2.354911022
F		-2.447916441		0.477929331		-2.29716848
F		-0.295732775		0.146221216		-0.39734526
