12
-186.35103317
Al		-1.711615032		2.544297744		-1.243011966
Al		-0.523626975		0.000234468		-2.343886146
Al		-2.196636887		-0.340164609		-0.508077762
F		-0.744919375		3.639963426		-0.158881855
F		-3.027879053		3.158060226		-2.328745416
F		-1.382493244		-1.673838559		-1.725211352
F		-2.530251978		1.447571022		0.055097836
F		-3.268749298		-1.258949435		0.624371254
F		0.632465098		-0.465188535		-3.656465151
F		-0.333657134		1.894501336		-2.355244747
F		-2.44738568		0.478199986		-2.296634597
F		-0.295207502		0.145264197		-0.397044022
