12
-186.35103317
Al		-1.699420762		2.561035234		-1.228795566
Al		-0.532218525		0.000527508		-2.347823046
Al		-2.201476997		-0.339108279		-0.516131192
F		-0.758822825		3.690807076		-0.162124875
F		-3.016019183		3.178317826		-2.314181086
F		-1.376702404		-1.675127979		-1.720173132
F		-2.525510758		1.449893342		0.053046446
F		-3.244897778		-1.307986225		0.599961154
F		0.620101978		-0.521593785		-3.641136761
F		-0.335564644		1.895470876		-2.350000497
F		-2.45572621		0.473946836		-2.305024187
F		-0.303461792		0.160303067		-0.401777762
