12
-186.35103317
Al		-1.699199048		2.561339552		-1.228537086
Al		-0.532374735		0.000532836		-2.347894626
Al		-2.201564999		-0.339089073		-0.516277618
F		-0.759075615		3.691731506		-0.162183839
F		-3.015803549		3.178686146		-2.31391628
F		-1.376597116		-1.675151423		-1.720081528
F		-2.525424554		1.449935566		0.053009148
F		-3.244464114		-1.308877803		0.599517334
F		0.619877194		-0.522619335		-3.640858063
F		-0.335599326		1.895488504		-2.349905147
F		-2.455877856		0.473869506		-2.305176725
F		-0.30361187		0.160576501		-0.40186383
