12
-186.35103317
Al		-1.698866477		2.561796029		-1.228149366
Al		-0.53260905		0.000540828		-2.348001996
Al		-2.201697002		-0.339060264		-0.516497257
F		-0.7594548		3.693118151		-0.162272285
F		-3.015480098		3.179238626		-2.313519071
F		-1.376439184		-1.675186589		-1.719944122
F		-2.525295248		1.449998902		0.052953201
F		-3.243813618		-1.31021517		0.598851604
F		0.619540018		-0.52415766		-3.640440016
F		-0.335651349		1.895514946		-2.349762122
F		-2.456105325		0.473753511		-2.305405532
F		-0.303836987		0.160986652		-0.401992932
