12
-186.35103317
Al		-1.69875562		2.561948188		-1.228020126
Al		-0.532687155		0.000543492		-2.348037786
Al		-2.201741003		-0.339050661		-0.51657047
F		-0.759581195		3.693580366		-0.162301767
F		-3.015372281		3.179422786		-2.313386668
F		-1.37638654		-1.675198311		-1.71989832
F		-2.525252146		1.450020014		0.052934552
F		-3.243596786		-1.310660959		0.598629694
F		0.619427626		-0.524670435		-3.640300667
F		-0.33566869		1.89552376		-2.349714447
F		-2.456181148		0.473714846		-2.305481801
F		-0.303912026		0.161123369		-0.402035966
