12
-186.35103317
Al		-1.700418475		2.559665803		-1.229958726
Al		-0.53151558		0.000503532		-2.347500936
Al		-2.201080988		-0.339194706		-0.515472275
F		-0.75768527		3.686647141		-0.161859537
F		-3.016989536		3.176660386		-2.315372713
F		-1.3771762		-1.675022481		-1.72058535
F		-2.525898676		1.449703334		0.053214287
F		-3.246849266		-1.303974124		0.601958344
F		0.621113506		-0.51697881		-3.642390902
F		-0.335408575		1.89539155		-2.350429572
F		-2.455043803		0.474294821		-2.304337766
F		-0.302786441		0.159072614		-0.401390456
