12
-186.35103317
Al		-1.698423049		2.562404665		-1.227632406
Al		-0.53292147		0.000551484		-2.348145156
Al		-2.201873006		-0.339021852		-0.516790109
F		-0.75996038		3.694967011		-0.162390213
F		-3.01504883		3.179975266		-2.312989459
F		-1.376228608		-1.675233477		-1.719760914
F		-2.52512284		1.45008335		0.052878605
F		-3.24294629		-1.311998326		0.597963964
F		0.61909045		-0.52620876		-3.63988262
F		-0.335720713		1.895550202		-2.349571422
F		-2.456408617		0.473598851		-2.305710608
F		-0.304137143		0.16153352		-0.402165068
