12
-186.35103317
Al		-1.697979621		2.563013301		-1.227115446
Al		-0.53323389		0.00056214		-2.348288316
Al		-2.20204901		-0.33898344		-0.517082961
F		-0.76046596		3.696815871		-0.162508141
F		-3.014617562		3.180711906		-2.312459847
F		-1.376018032		-1.675280365		-1.719577706
F		-2.524950432		1.450167798		0.052804009
F		-3.242078962		-1.313781482		0.597076324
F		0.618640882		-0.52825986		-3.639325224
F		-0.335790077		1.895585458		-2.349380722
F		-2.456711909		0.473444191		-2.306015684
F		-0.304437299		0.162080388		-0.402337204
