12
-186.35103317
Al		-1.69764705		2.563469778		-1.226727726
Al		-0.533468205		0.000570132		-2.348395686
Al		-2.202181013		-0.338954631		-0.5173026
F		-0.760845145		3.698202516		-0.162596587
F		-3.014294111		3.181264386		-2.312062638
F		-1.3758601		-1.675315531		-1.7194403
F		-2.524821126		1.450231134		0.052748062
F		-3.241428466		-1.315118849		0.596410594
F		0.618303706		-0.529798185		-3.638907177
F		-0.3358421		1.8956119		-2.349237697
F		-2.456939378		0.473328196		-2.306244491
F		-0.304662416		0.162490539		-0.402466306
