12
-186.35103317
Al		-1.697203622		2.564078414		-1.226210766
Al		-0.533780625		0.000580788		-2.348538846
Al		-2.202357017		-0.338916219		-0.517595452
F		-0.761350725		3.700051376		-0.162714515
F		-3.013862843		3.182001026		-2.311533026
F		-1.375649524		-1.675362419		-1.719257092
F		-2.524648718		1.450315582		0.052673466
F		-3.240561138		-1.316902005		0.595522954
F		0.617854138		-0.531849285		-3.638349781
F		-0.335911464		1.895647156		-2.349046997
F		-2.45724267		0.473173536		-2.306549567
F		-0.304962572		0.163037407		-0.402638442
