12
-186.35103317
Al		-1.69653848		2.564991368		-1.225435326
Al		-0.534249255		0.000596772		-2.348753586
Al		-2.202621023		-0.338858601		-0.51803473
F		-0.762109095		3.702824666		-0.162891407
F		-3.013215941		3.183105986		-2.310738608
F		-1.37533366		-1.675432751		-1.71898228
F		-2.524390106		1.450442254		0.052561572
F		-3.239260146		-1.319576739		0.594191494
F		0.617179786		-0.534925935		-3.637513687
F		-0.33601551		1.89570004		-2.348760947
F		-2.457697608		0.472941546		-2.307007181
F		-0.305412806		0.163857709		-0.402896646
