12
-186.35103317
Al		-1.696316766		2.565295686		-1.225176846
Al		-0.534405465		0.0006021		-2.348825166
Al		-2.202709025		-0.338839395		-0.518181156
F		-0.762361885		3.703749096		-0.162950371
F		-3.013000307		3.183474306		-2.310473802
F		-1.375228372		-1.675456195		-1.718890676
F		-2.524303902		1.450484478		0.052524274
F		-3.238826482		-1.320468317		0.593747674
F		0.616955002		-0.535951485		-3.637234989
F		-0.336050192		1.895717668		-2.348665597
F		-2.457849254		0.472864216		-2.307159719
F		-0.305562884		0.164131143		-0.402982714
