12
-186.35103317
Al		-1.695984195		2.565752163		-1.224789126
Al		-0.53463978		0.000610092		-2.348932536
Al		-2.202841028		-0.338810586		-0.518400795
F		-0.76274107		3.705135741		-0.163038817
F		-3.012676856		3.184026786		-2.310076593
F		-1.37507044		-1.675491361		-1.71875327
F		-2.524174596		1.450547814		0.052468327
F		-3.238175986		-1.321805684		0.593081944
F		0.616617826		-0.53748981		-3.636816942
F		-0.336102215		1.89574411		-2.348522572
F		-2.458076723		0.472748221		-2.307388526
F		-0.305788001		0.164541294		-0.403111816
