12
-186.35103317
Al		-1.695651624		2.56620864		-1.224401406
Al		-0.534874095		0.000618084		-2.349039906
Al		-2.202973031		-0.338781777		-0.518620434
F		-0.763120255		3.706522386		-0.163127263
F		-3.012353405		3.184579266		-2.309679384
F		-1.374912508		-1.675526527		-1.718615864
F		-2.52404529		1.45061115		0.05241238
F		-3.23752549		-1.323143051		0.592416214
F		0.61628065		-0.539028135		-3.636398895
F		-0.336154238		1.895770552		-2.348379547
F		-2.458304192		0.472632226		-2.307617333
F		-0.306013118		0.164951445		-0.403240918
