12
-186.35103317
Al		-1.695319053		2.566665117		-1.224013686
Al		-0.53510841		0.000626076		-2.349147276
Al		-2.203105034		-0.338752968		-0.518840073
F		-0.76349944		3.707909031		-0.163215709
F		-3.012029954		3.185131746		-2.309282175
F		-1.374754576		-1.675561693		-1.718478458
F		-2.523915984		1.450674486		0.052356433
F		-3.236874994		-1.324480418		0.591750484
F		0.615943474		-0.54056646		-3.635980848
F		-0.336206261		1.895796994		-2.348236522
F		-2.458531661		0.472516231		-2.30784614
F		-0.306238235		0.165361596		-0.40337002
