12
-186.35103317
Al		-1.700085904		2.56012228		-1.229571006
Al		-0.531749895		0.000511524		-2.347608306
Al		-2.201212991		-0.339165897		-0.515691914
F		-0.758064455		3.688033786		-0.161947983
F		-3.016666085		3.177212866		-2.314975504
F		-1.377018268		-1.675057647		-1.720447944
F		-2.52576937		1.44976667		0.05315834
F		-3.24619877		-1.305311491		0.601292614
F		0.62077633		-0.518517135		-3.641972855
F		-0.335460598		1.895417992		-2.350286547
F		-2.455271272		0.474178826		-2.304566573
F		-0.303011558		0.159482765		-0.401519558
