12
-186.35103317
Al		-1.694986482		2.567121594		-1.223625966
Al		-0.535342725		0.000634068		-2.349254646
Al		-2.203237037		-0.338724159		-0.519059712
F		-0.763878625		3.709295676		-0.163304155
F		-3.011706503		3.185684226		-2.308884966
F		-1.374596644		-1.675596859		-1.718341052
F		-2.523786678		1.450737822		0.052300486
F		-3.236224498		-1.325817785		0.591084754
F		0.615606298		-0.542104785		-3.635562801
F		-0.336258284		1.895823436		-2.348093497
F		-2.45875913		0.472400236		-2.308074947
F		-0.306463352		0.165771747		-0.403499122
