12
-186.35103317
Al		-1.694764768		2.567425912		-1.223367486
Al		-0.535498935		0.000639396		-2.349326226
Al		-2.203325039		-0.338704953		-0.519206138
F		-0.764131415		3.710220106		-0.163363119
F		-3.011490869		3.186052546		-2.30862016
F		-1.374491356		-1.675620303		-1.718249448
F		-2.523700474		1.450780046		0.052263188
F		-3.235790834		-1.326709363		0.590640934
F		0.615381514		-0.543130335		-3.635284103
F		-0.336292966		1.895841064		-2.347998147
F		-2.458910776		0.472322906		-2.308227485
F		-0.30661343		0.166045181		-0.40358519
