12
-186.35103317
Al		-1.694653911		2.567578071		-1.223238246
Al		-0.53557704		0.00064206		-2.349362016
Al		-2.20336904		-0.33869535		-0.519279351
F		-0.76425781		3.710682321		-0.163392601
F		-3.011383052		3.186236706		-2.308487757
F		-1.374438712		-1.675632025		-1.718203646
F		-2.523657372		1.450801158		0.052244539
F		-3.235574002		-1.327155152		0.590419024
F		0.615269122		-0.54364311		-3.635144754
F		-0.336310307		1.895849878		-2.347950472
F		-2.458986599		0.472284241		-2.308303754
F		-0.306688469		0.166181898		-0.403628224
