12
-186.35103317
Al		-1.693545341		2.569099661		-1.221945846
Al		-0.53635809		0.0006687		-2.349719916
Al		-2.20380905		-0.33859932		-0.520011481
F		-0.76552176		3.715304471		-0.163687421
F		-3.010304882		3.188078306		-2.307163727
F		-1.373912272		-1.675749245		-1.717745626
F		-2.523226352		1.451012278		0.052058049
F		-3.233405682		-1.331613042		0.588199924
F		0.614145202		-0.54877086		-3.633751264
F		-0.336483717		1.895938018		-2.347473722
F		-2.459744829		0.471897591		-2.309066444
F		-0.307438859		0.167549068		-0.404058564
