12
-186.35103317
Al		-1.69321277		2.569556138		-1.221558126
Al		-0.536592405		0.000676692		-2.349827286
Al		-2.203941053		-0.338570511		-0.52023112
F		-0.765900945		3.716691116		-0.163775867
F		-3.009981431		3.188630786		-2.306766518
F		-1.37375434		-1.675784411		-1.71760822
F		-2.523097046		1.451075614		0.052002102
F		-3.232755186		-1.332950409		0.587534194
F		0.613808026		-0.550309185		-3.633333217
F		-0.33653574		1.89596446		-2.347330697
F		-2.459972298		0.471781596		-2.309295251
F		-0.307663976		0.167959219		-0.404187666
