12
-186.35103317
Al		-1.693101913		2.569708297		-1.221428886
Al		-0.53667051		0.000679356		-2.349863076
Al		-2.203985054		-0.338560908		-0.520304333
F		-0.76602734		3.717153331		-0.163805349
F		-3.009873614		3.188814946		-2.306634115
F		-1.373701696		-1.675796133		-1.717562418
F		-2.523053944		1.451096726		0.051983453
F		-3.232538354		-1.333396198		0.587312284
F		0.613695634		-0.55082196		-3.633193868
F		-0.336553081		1.895973274		-2.347283022
F		-2.460048121		0.471742931		-2.30937152
F		-0.307739015		0.168095936		-0.4042307
