12
-186.35103317
Al		-1.692991056		2.569860456		-1.221299646
Al		-0.536748615		0.00068202		-2.349898866
Al		-2.204029055		-0.338551305		-0.520377546
F		-0.766153735		3.717615546		-0.163834831
F		-3.009765797		3.188999106		-2.306501712
F		-1.373649052		-1.675807855		-1.717516616
F		-2.523010842		1.451117838		0.051964804
F		-3.232321522		-1.333841987		0.587090374
F		0.613583242		-0.551334735		-3.633054519
F		-0.336570422		1.895982088		-2.347235347
F		-2.460123944		0.471704266		-2.309447789
F		-0.307814054		0.168232653		-0.404273734
