12
-186.35103317
Al		-1.69986419		2.560426598		-1.229312526
Al		-0.531906105		0.000516852		-2.347679886
Al		-2.201300993		-0.339146691		-0.51583834
F		-0.758317245		3.688958216		-0.162006947
F		-3.016450451		3.177581186		-2.314710698
F		-1.37691298		-1.675081091		-1.72035634
F		-2.525683166		1.449808894		0.053121042
F		-3.245765106		-1.306203069		0.600848794
F		0.620551546		-0.519542685		-3.641694157
F		-0.33549528		1.89543562		-2.350191197
F		-2.455422918		0.474101496		-2.304719111
F		-0.303161636		0.159756199		-0.401605626
