12
-186.35103317
Al		-1.692547628		2.570469092		-1.220782686
Al		-0.537061035		0.000692676		-2.350042026
Al		-2.204205059		-0.338512893		-0.520670398
F		-0.766659315		3.719464406		-0.163952759
F		-3.009334529		3.189735746		-2.3059721
F		-1.373438476		-1.675854743		-1.717333408
F		-2.522838434		1.451202286		0.051890208
F		-3.231454194		-1.335625143		0.586202734
F		0.613133674		-0.553385835		-3.632497123
F		-0.336639786		1.896017344		-2.347044647
F		-2.460427236		0.471549606		-2.309752865
F		-0.30811421		0.168779521		-0.40444587
