12
-186.35103317
Al		-1.692325914		2.57077341		-1.220524206
Al		-0.537217245		0.000698004		-2.350113606
Al		-2.204293061		-0.338493687		-0.520816824
F		-0.766912105		3.720388836		-0.164011723
F		-3.009118895		3.190104066		-2.305707294
F		-1.373333188		-1.675878187		-1.717241804
F		-2.52275223		1.45124451		0.05185291
F		-3.23102053		-1.336516721		0.585758914
F		0.61290889		-0.554411385		-3.632218425
F		-0.336674468		1.896034972		-2.346949297
F		-2.460578882		0.471472276		-2.309905403
F		-0.308264288		0.169052955		-0.404531938
