12
-186.35103317
Al		-1.691993343		2.571229887		-1.220136486
Al		-0.53745156		0.000705996		-2.350220976
Al		-2.204425064		-0.338464878		-0.521036463
F		-0.76729129		3.721775481		-0.164100169
F		-3.008795444		3.190656546		-2.305310085
F		-1.373175256		-1.675913353		-1.717104398
F		-2.522622924		1.451307846		0.051796963
F		-3.230370034		-1.337854088		0.585093184
F		0.612571714		-0.55594971		-3.631800378
F		-0.336726491		1.896061414		-2.346806272
F		-2.460806351		0.471356281		-2.31013421
F		-0.308489405		0.169463106		-0.40466104
