12
-186.35103317
Al		-1.691771629		2.571534205		-1.219878006
Al		-0.53760777		0.000711324		-2.350292556
Al		-2.204513066		-0.338445672		-0.521182889
F		-0.76754408		3.722699911		-0.164159133
F		-3.00857981		3.191024866		-2.305045279
F		-1.373069968		-1.675936797		-1.717012794
F		-2.52253672		1.45135007		0.051759665
F		-3.22993637		-1.338745666		0.584649364
F		0.61234693		-0.55697526		-3.63152168
F		-0.336761173		1.896079042		-2.346710922
F		-2.460957997		0.471278951		-2.310286748
F		-0.308639483		0.16973654		-0.404747108
