12
-186.35103317
Al		-1.691328201		2.572142841		-1.219361046
Al		-0.53792019		0.00072198		-2.350435716
Al		-2.20468907		-0.33840726		-0.521475741
F		-0.76804966		3.724548771		-0.164277061
F		-3.008148542		3.191761506		-2.304515667
F		-1.372859392		-1.675983685		-1.716829586
F		-2.522364312		1.451434518		0.051685069
F		-3.229069042		-1.340528822		0.583761724
F		0.611897362		-0.55902636		-3.630964284
F		-0.336830537		1.896114298		-2.346520222
F		-2.461261289		0.471124291		-2.310591824
F		-0.308939639		0.170283408		-0.404919244
