12
-186.35103317
Al		-1.691106487		2.572447159		-1.219102566
Al		-0.5380764		0.000727308		-2.350507296
Al		-2.204777072		-0.338388054		-0.521622167
F		-0.76830245		3.725473201		-0.164336025
F		-3.007932908		3.192129826		-2.304250861
F		-1.372754104		-1.676007129		-1.716737982
F		-2.522278108		1.451476742		0.051647771
F		-3.228635378		-1.3414204		0.583317904
F		0.611672578		-0.56005191		-3.630685586
F		-0.336865219		1.896131926		-2.346424872
F		-2.461412935		0.471046961		-2.310744362
F		-0.309089717		0.170556842		-0.405005312
