12
-186.35103317
Al		-1.690773916		2.572903636		-1.218714846
Al		-0.538310715		0.0007353		-2.350614666
Al		-2.204909075		-0.338359245		-0.521841806
F		-0.768681635		3.726859846		-0.164424471
F		-3.007609457		3.192682306		-2.303853652
F		-1.372596172		-1.676042295		-1.716600576
F		-2.522148802		1.451540078		0.051591824
F		-3.227984882		-1.342757767		0.582652174
F		0.611335402		-0.561590235		-3.630267539
F		-0.336917242		1.896158368		-2.346281847
F		-2.461640404		0.470930966		-2.310973169
F		-0.309314834		0.170966993		-0.405134414
