12
-186.35103317
Al		-1.690108774		2.57381659		-1.217939406
Al		-0.538779345		0.000751284		-2.350829406
Al		-2.205173081		-0.338301627		-0.522281084
F		-0.769440005		3.729633136		-0.164601363
F		-3.006962555		3.193787266		-2.303059234
F		-1.372280308		-1.676112627		-1.716325764
F		-2.52189019		1.45166675		0.05147993
F		-3.22668389		-1.345432501		0.581320714
F		0.61066105		-0.564666885		-3.629431445
F		-0.337021288		1.896211252		-2.345995797
F		-2.462095342		0.470698976		-2.311430783
F		-0.309765068		0.171787295		-0.405392618
