12
-186.35103317
Al		-1.68988706		2.574120908		-1.217680926
Al		-0.538935555		0.000756612		-2.350900986
Al		-2.205261083		-0.338282421		-0.52242751
F		-0.769692795		3.730557566		-0.164660327
F		-3.006746921		3.194155586		-2.302794428
F		-1.37217502		-1.676136071		-1.71623416
F		-2.521803986		1.451708974		0.051442632
F		-3.226250226		-1.346324079		0.580876894
F		0.610436266		-0.565692435		-3.629152747
F		-0.33705597		1.89622888		-2.345900447
F		-2.462246988		0.470621646		-2.311583321
F		-0.309915146		0.172060729		-0.405478686
