12
Properties=species:S:1:pos:R:3:forces:R:3 energy=-187.37616094 pbc="F F F"
Al    1.3756331800000001    -0.217554783    2.352035673    -0.438253    -0.354867    -0.043212
Al    1.2098846    1.2735299    -0.016626099999999998    0.036473    -0.012278    0.062625
Al    -0.341359962    1.01268125    -2.301929473    0.336433    0.394995    -0.215228
F    -1.603063772    -0.328484953    -2.312867106    -0.246954    -0.220352    0.021653
F    2.2457553530000003    -0.253538753    0.657538152    0.027153    0.027007    -0.0368
F    -0.040682160999999994    2.13430879    -3.688809733    -0.066099    -0.134733    0.17338
F    -0.47700201    1.9358584529999998    -0.658108649    -0.045046    -0.017368    -0.022927
F    2.387813257    2.6738319120000003    -0.121950743    0.011375    0.014134    -0.008422
F    1.308844839    0.25219260499999996    -1.6673963539999999    -0.027036    -0.028103    -0.017243
F    0.289197417    1.2777181290000001    1.683234239    0.012531    0.043584    -0.027379
F    2.505656169    0.444986376    3.638305037    0.182623    0.084522    0.156174
F    0.31852337500000005    -1.703186852    2.551982171    0.216799    0.203458    -0.042622
