      12
SCF Done            -187.37616094
Al            1.208026180        -0.013480783         2.442882673
Al            1.287434600         1.182526900        -0.059094100
Al           -0.256168962         0.905575250        -2.347595473
F            -1.637271772        -0.293894953        -2.291811106
F             2.031709353        -0.384505753         0.764781152
F             0.148734839         1.901197790        -3.792774733
F            -0.324494010         1.963034453        -0.770258649
F             2.619634257         2.400920912        -0.248826743
F             1.288993839         0.064122605        -1.627071354
F             0.418219417         1.514404129         1.621594239
F             2.463332169         0.503088376         3.661210037
F            -0.068015625        -1.241789852         2.761851171
