      12
SCF Done            -186.51507750
Al           -0.327115338         0.793020260        -1.828376836
Al           -0.426270814         1.112280353         1.268666836
Al           -3.076143319         0.646575889        -1.837491942
F            -3.588150561         0.417672808        -3.574580608
F            -1.563689157        -0.627217201        -1.741539445
F            -1.772948787         2.075005203        -1.983245983
F            -2.060124325         0.904800539         0.461063324
F             0.650601727         1.046491043        -0.313477611
F            -0.060840375         2.801844797         1.861600547
F             0.185477315        -0.378932858         2.146110445
F            -4.365243592         0.632017870        -0.552677465
F             0.815465727         0.791987537        -3.250034029
