12
Properties=species:S:1:pos:R:3:forces:R:3 energy=-186.06865405 pbc="F F F"
Al    -1.8105517610000001    2.47219692    -1.2350532909999998    -0.594654    -0.567981    -0.647241
Al    -0.646455855    0.066601206    -2.484293374    -0.135872    0.069367    0.405727
Al    -1.998666476    -0.406124418    -0.352684337    0.369112    0.172114    -0.148397
F    -1.0173060409999999    3.388881136    0.20744834299999998    0.434072    -0.17393    0.363329
F    -2.755006747    3.1485289929999998    -2.728706092    0.030715    -0.239415    -0.016401
F    -1.43459948    -1.675445027    -1.709565961    -0.054413    -0.019795    -0.053257
F    -2.292380962    1.378057083    0.23281706200000002    -0.013354    -0.023169    0.012696
F    -3.520531763    -0.957837132    0.6218842529999999    -0.428168    0.345827    0.407398
F    0.807128398    -0.389085841    -3.5822035039999998    0.28869    0.491683    -0.379216
F    -0.532045925    1.962150914    -2.599264531    0.015146    -0.017369    -0.018577
F    -2.556986657    0.465218651    -2.112420728    0.033673    0.101831    0.049571
F    -0.06799386800000001    0.130547739    -0.5960914079999999    0.055054    -0.139163    0.024368
