12
Properties=species:S:1:pos:R:3:forces:R:3 energy=-185.70236647 pbc="F F F"
Al    1.25700288    0.05183831700000002    2.4781922730000003    1.739896    -1.610553    -1.782307
Al    1.285974    1.1583658000000001    -0.09126759999999999    -1.443338    0.718846    0.603759
Al    -0.359621162    0.8459932499999999    -2.332210573    2.289088    -1.880349    -0.148063
F    -1.762913572    -0.5567776529999999    -2.214699806    -1.672288    0.025074    0.466056
F    2.038373053    -0.265553153    0.745569052    0.090793    0.051958    -0.700705
F    0.163146339    1.87312609    -3.9411849329999997    -0.441932    1.479521    -0.606447
F    -0.40658300999999997    2.011960953    -0.758424649    -0.354059    0.105314    -0.405077
F    2.662393957    2.426074512    -0.34455164299999996    0.801985    0.12002    -0.249707
F    1.257432039    0.118076405    -1.578194254    0.490929    -0.144607    0.489919
F    0.405076717    1.6132346290000001    1.656756839    -0.034877    -0.051479    0.544665
F    2.724644169    0.614804876    3.680770837    0.147107    1.190171    1.146287
F    -0.074072525    -1.386413552    2.810583871    -1.613303    -0.003917    0.641621
