      12
SCF Done            -185.70236647
Al            1.485662880        -0.187846683         2.336511273
Al            1.109860000         1.383923800         0.005155400
Al           -0.116067162         0.598994250        -2.429573573
F            -1.793778572        -0.226185653        -2.153604806
F             2.079359053        -0.317247153         0.542009052
F            -0.066098661         1.955578090        -3.736598933
F            -0.434397010         1.881472953        -0.965728649
F             2.646458957         2.352622512        -0.351322643
F             1.405262039         0.013897405        -1.463820254
F             0.492282717         1.426245629         1.791689839
F             2.428233169         0.730251876         3.685507837
F            -0.102666525        -1.056936552         2.878444871
