      12
SCF Done            -164.45506204
Al            1.485663262        -0.187846284         2.336511437
Al            1.109860000         1.383924600         0.005155400
Al           -0.116066785         0.598994564        -2.429573873
F            -1.793778204        -0.226185344        -2.153605677
F             2.079358992        -0.317247154         0.542009113
F            -0.066097816         1.955578854        -3.736598794
F            -0.434397026         1.881472881        -0.965728695
F             2.646458953         2.352622509        -0.351322644
F             1.405262223         0.013897528        -1.463820377
F             0.492282871         1.426245823         1.791689902
F             2.428233930         0.730252619         3.685507409
F            -0.102666041        -1.056936059         2.878445586
