12
Properties=species:S:1:pos:R:3:forces:R:3 energy=-182.83844785 pbc="F F F"
Al    0.382208993    -0.767577158    1.531601139    -0.279681    2.237398    1.722558
Al    2.769012365    -1.988652672    -0.7868454970000001    2.522969    -0.89717    -0.707888
Al    -1.212562781    -2.039786358    -1.366886543    -2.192816    -0.957718    -1.39489
F    3.543407107    -0.130051393    -1.12256778    1.613919    2.839273    -1.033442
F    -1.9054964540000001    -0.200031888    -1.9163751969999998    -1.322922    2.801548    -1.461284
F    2.728492195    -3.9770646939999996    -0.382176843    0.116017    -3.26938    0.251524
F    -1.239172566    -4.028019602    -0.96019452    -0.100691    -3.272169    0.219953
F    2.051506797    -1.328816393    1.624864202    1.235581    -0.686539    1.601944
F    0.858356164    -1.211133482    -1.697698065    0.273933    1.026439    -1.970831
F    0.091112152    -0.996854963    3.549974089    -0.405992    -1.638747    2.931308
F    0.379550571    1.2823598989999998    1.369122736    0.163226    2.540324    -1.344371
F    -1.229669468    -1.370953383    1.146860614    -1.623542    -0.723259    1.185419
