      12
SCF Done            -170.89163500
Al           -1.694890189         2.561588685        -1.224564406
Al           -0.471168570         0.017089004        -2.410681356
Al           -2.259238586        -0.346720712        -0.448616649
F            -0.750943280         3.694704311        -0.154221373
F            -3.010071570         3.161503666        -2.311878719
F            -1.375263888        -1.414768637        -1.670585754
F            -2.467154880         1.413129510        -0.043043615
F            -3.331324130        -1.384348946         0.691843764
F             0.714293490        -0.561206860        -3.747447600
F            -0.416435893         1.830379122        -2.293315322
F            -2.445407757         0.459186951        -2.298357628
F            -0.323612763         0.134127980        -0.424995188
