12
Properties=species:S:1:pos:R:3:forces:R:3 energy=-183.78022797 pbc="F F F"
Al    0.27954437200000004    -2.312573611    -1.823488061    0.073262    0.282228    0.06665
Al    2.0202665300000002    -0.544223656    -0.8144910240000001    -0.263379    -0.059778    -0.128486
Al    -0.324762006    0.29691930299999997    -1.7986564829999998    0.190126    -0.222439    0.061839
F    3.6090608879999997    -0.183666016    -0.039426023    -0.058605    -0.013299    -0.02859
F    -0.162366374    -4.014952493    -2.225505636    0.016296    0.062779    0.014825
F    2.1800730379999997    -1.882515876    -2.300356989    -0.694941    1.464041    -1.366936
F    1.5693482950000002    0.7546951390000001    -2.2752602200000003    0.013589    -1.595535    -1.396048
F    -1.471646422    1.638740531    -2.1717039110000003    0.042302    -0.049492    0.01376
F    -1.246202086    -1.298851052    -1.005670169    1.139083    0.246933    1.770984
F    -0.18986437399999997    -1.0324389090000001    -3.294975581    2.054552    0.477819    -0.213026
F    0.513009596    0.48828279799999996    0.014044398    -0.901876    -1.826415    0.587954
F    1.123733334    -2.14892701    -0.011051573    -1.610408    1.233157    0.617073
