      12
SCF Done            -183.78022797
Al            0.280331372        -2.309540611        -1.822772061
Al            2.017435530        -0.544865656        -0.815872024
Al           -0.322718006         0.294528303        -1.797991483
F             3.605134888        -0.184557016        -0.041341023
F            -0.161274374        -4.010746493        -2.224512636
F             1.971048038        -1.577774876        -2.473830989
F             1.514822295         0.392283139        -2.455083220
F            -1.468812422         1.635425531        -2.170781911
F            -0.940331086        -1.230507052        -0.744092169
F             0.200649626        -0.942747909        -3.216834581
F             0.373841596         0.104524798         0.017658398
F             0.830067334        -1.865534010        -0.001088573
