12
Properties=species:S:1:pos:R:3:forces:R:3 energy=-187.29645351 pbc="F F F"
Al    1.16404518    -0.27465298299999996    2.380626873    -1.321872    -1.106456    -0.045688
Al    1.2365398    1.2573747    0.030081699999999996    0.149883    0.000996    0.186109
Al    -0.185799762    1.12000725    -2.3666248729999997    0.959103    1.185587    -0.73844
F    -1.5742299720000001    -0.13045795300000002    -2.436955106    -0.823869    -0.696669    0.013914
F    2.218241553    -0.27561835300000004    0.761247552    0.121435    0.041399    -0.121779
F    0.268518239    2.1674317899999997    -3.736147533    -0.204104    -0.366613    0.439478
F    -0.35883341    2.045595853    -0.7299698490000001    -0.163743    -0.005595    -0.050578
F    2.470334657    2.617183712    0.012975657000000002    0.120469    0.114864    -0.027105
F    1.336678039    0.226077005    -1.6124545540000002    -0.027633    -0.12653    -0.053174
F    0.160710017    1.243015529    1.6402456390000002    0.009325    0.188873    -0.077565
F    2.240929569    0.37689797599999997    3.766940237    0.585649    0.242869    0.544051
F    0.20769577499999997    -1.877041852    2.403408371    0.595356    0.527274    -0.069224
