12
Properties=species:S:1:pos:R:3:forces:R:3 energy=-187.16073102 pbc="F F F"
Al    0.383067593    -0.790273658    1.527705939    0.084753    -0.444436    -0.542585
Al    2.0732173649999996    -1.708745272    -0.431993997    -0.701655    0.190609    0.209701
Al    -0.6541723810000001    -1.743773058    -0.829325343    0.607656    0.207422    0.400445
F    3.258302407    -0.7753995929999999    -0.9932449799999999    -0.24219    -0.341348    0.138731
F    -1.652993154    -0.8384743880000001    -1.7087313970000002    0.201056    -0.335654    0.203304
F    2.681531295    -3.2169716939999997    -0.5043667430000001    -0.047203    0.414364    -0.019728
F    -1.178436066    -3.266544402    -1.06669362    0.040433    0.41549    -0.006961
F    1.743131897    -1.353360393    1.024607802    -0.229884    0.098598    -0.288234
F    0.799626664    -1.602548182    -1.260066365    -0.05123    -0.158903    0.365665
F    0.158270452    -1.036935263    3.0925156890000003    0.055974    0.172317    -0.399409
F    0.393729071    0.855964099    1.3093964359999999    -0.01771    -0.323873    0.150116
F    -0.762362168    -1.3855373830000002    0.6596022140000001    0.299999    0.105403    -0.21104
