12
-186.39349496
Al		-0.077014958		1.638536504		2.154933789
Al		2.525691647		2.606368807		1.765420472
Al		1.357017514		2.667816284		-0.646434227
F		1.002000933		3.090316858		2.836904358
F		-1.577822542		2.682469661		2.178525595
F		-0.491631685		-0.029295813		2.750146424
F		1.810201311		0.867215571		1.931496402
F		2.964480485		1.859257919		-0.074438071
F		1.085387036		3.040267758		-2.394340061
F		1.747063304		4.015989597		0.635428783
F		4.11141086		3.124129658		2.459351073
F		-0.01012325		1.802121396		0.21189359
