12
-186.39349496
Al		-0.076935353		1.638333316		2.154906168
Al		2.525721788		2.606298969		1.765393099
Al		1.356896044		2.668120984		-0.64637937
F		1.002071438		3.09007416		2.837029403
F		-1.577777511		2.68226331		2.178727814
F		-0.491497159		-0.02955959		2.749910078
F		1.810273489		0.867117569		1.931265869
F		2.964426225		1.859467925		-0.074589676
F		1.085185693		3.040763833		-2.39422772
F		1.746998614		4.016073507		0.635644739
F		4.111461032		3.124008029		2.459318336
F		-0.010161419		1.802226122		0.211889417
