12
-186.39349496
Al		-0.076616933		1.637520564		2.154795684
Al		2.525842352		2.606019617		1.765283607
Al		1.356410164		2.669339784		-0.646159942
F		1.002353458		3.089103368		2.837529583
F		-1.577597387		2.681437906		2.17953669
F		-0.490959055		-0.030614698		2.748964694
F		1.810562201		0.866725561		1.930343737
F		2.964209185		1.860307949		-0.075196096
F		1.084380321		3.042748133		-2.393778356
F		1.746739854		4.016409147		0.636508563
F		4.11166172		3.123521513		2.459187388
F		-0.010314095		1.802645026		0.211872725
