12
-186.39349496
Al		-0.076457723		1.637114188		2.154740442
Al		2.525902634		2.605879941		1.765228861
Al		1.356167224		2.669949184		-0.646050228
F		1.002494468		3.088617972		2.837779673
F		-1.577507325		2.681025204		2.179941128
F		-0.490690003		-0.031142252		2.748492002
F		1.810706557		0.866529557		1.929882671
F		2.964100665		1.860727961		-0.075499306
F		1.083977635		3.043740283		-2.393553674
F		1.746610474		4.016576967		0.636940475
F		4.111762064		3.123278255		2.459121914
F		-0.010390433		1.802854478		0.211864379
