12
-186.39349496
Al		-0.076298513		1.636707812		2.1546852
Al		2.525962916		2.605740265		1.765174115
Al		1.355924284		2.670558584		-0.645940514
F		1.002635478		3.088132576		2.838029763
F		-1.577417263		2.680612502		2.180345566
F		-0.490420951		-0.031669806		2.74801931
F		1.810850913		0.866333553		1.929421605
F		2.963992145		1.861147973		-0.075802516
F		1.083574949		3.044732433		-2.393328992
F		1.746481094		4.016744787		0.637372387
F		4.111862408		3.123034997		2.45905644
F		-0.010466771		1.80306393		0.211856033
