12
-186.39349496
Al		-0.076139303		1.636301436		2.154629958
Al		2.526023198		2.605600589		1.765119369
Al		1.355681344		2.671167984		-0.6458308
F		1.002776488		3.08764718		2.838279853
F		-1.577327201		2.6801998		2.180750004
F		-0.490151899		-0.03219736		2.747546618
F		1.810995269		0.866137549		1.928960539
F		2.963883625		1.861567985		-0.076105726
F		1.083172263		3.045724583		-2.39310431
F		1.746351714		4.016912607		0.637804299
F		4.111962752		3.122791739		2.458990966
F		-0.010543109		1.803273382		0.211847687
