12
-186.39349496
Al		-0.075900488		1.635691872		2.154547095
Al		2.526113621		2.605391075		1.76503725
Al		1.355316934		2.672082084		-0.645666229
F		1.002988003		3.086919086		2.838654988
F		-1.577192108		2.679580747		2.181356661
F		-0.489748321		-0.032988691		2.74683758
F		1.811211803		0.865843543		1.92826894
F		2.963720845		1.862198003		-0.076560541
F		1.082568234		3.047212808		-2.392767287
F		1.746157644		4.017164337		0.638452167
F		4.112113268		3.122426852		2.458892755
F		-0.010657616		1.80358756		0.211835168
