12
-186.39349496
Al		-0.075661673		1.635082308		2.154464232
Al		2.526204044		2.605181561		1.764955131
Al		1.354952524		2.672996184		-0.645501658
F		1.003199518		3.086190992		2.839030123
F		-1.577057015		2.678961694		2.181963318
F		-0.489344743		-0.033780022		2.746128542
F		1.811428337		0.865549537		1.927577341
F		2.963558065		1.862828021		-0.077015356
F		1.081964205		3.048701033		-2.392430264
F		1.745963574		4.017416067		0.639100035
F		4.112263784		3.122061965		2.458794544
F		-0.010772123		1.803901738		0.211822649
