12
-186.39349496
Al		-0.075343253		1.634269556		2.154353748
Al		2.526324608		2.604902209		1.764845639
Al		1.354466644		2.674214984		-0.64528223
F		1.003481538		3.0852202		2.839530303
F		-1.576876891		2.67813629		2.182772194
F		-0.488806639		-0.03483513		2.745183158
F		1.811717049		0.865157529		1.926655209
F		2.963341025		1.863668045		-0.077621776
F		1.081158833		3.050685333		-2.3919809
F		1.745704814		4.017751707		0.639963859
F		4.112464472		3.121575449		2.458663596
F		-0.010924799		1.804320642		0.211805957
