12
-186.39349496
Al		-0.075184043		1.63386318		2.154298506
Al		2.52638489		2.604762533		1.764790893
Al		1.354223704		2.674824384		-0.645172516
F		1.003622548		3.084734804		2.839780393
F		-1.576786829		2.677723588		2.183176632
F		-0.488537587		-0.035362684		2.744710466
F		1.811861405		0.864961525		1.926194143
F		2.963232505		1.864088057		-0.077924986
F		1.080756147		3.051677483		-2.391756218
F		1.745575434		4.017919527		0.640395771
F		4.112564816		3.121332191		2.458598122
F		-0.011001137		1.804530094		0.211797611
