12
-186.39349496
Al		-0.077572193		1.63995882		2.155127136
Al		2.52548066		2.606857673		1.765612083
Al		1.357867804		2.665683384		-0.646818226
F		1.001507398		3.092015744		2.836029043
F		-1.578137759		2.683914118		2.177110062
F		-0.492573367		-0.027449374		2.751800846
F		1.809696065		0.867901585		1.933110133
F		2.964860305		1.857787877		-0.073376836
F		1.086796437		3.036795233		-2.395126448
F		1.747516134		4.015402227		0.633917091
F		4.111059656		3.124981061		2.459580232
F		-0.009856067		1.801388314		0.211922801
