12
-186.39349496
Al		-0.074626808		1.632440864		2.154105159
Al		2.526595877		2.604273667		1.764599282
Al		1.353373414		2.676957284		-0.644788517
F		1.004116083		3.083035918		2.840655708
F		-1.576471612		2.676279131		2.184592165
F		-0.487595905		-0.037209123		2.743056044
F		1.812366651		0.864275511		1.924580412
F		2.962852685		1.865558099		-0.078986221
F		1.079346746		3.055150008		-2.390969831
F		1.745122604		4.018506897		0.641907463
F		4.11291602		3.120480788		2.458368963
F		-0.01126832		1.805263176		0.2117684
