12
-186.39349496
Al		-0.074069573		1.631018548		2.153911812
Al		2.526806864		2.603784801		1.764407671
Al		1.352523124		2.679090184		-0.644404518
F		1.004609618		3.081337032		2.841531023
F		-1.576156395		2.674834674		2.186007698
F		-0.486654223		-0.039055562		2.741401622
F		1.812871897		0.863589497		1.922966681
F		2.962472865		1.867028141		-0.080047456
F		1.077937345		3.058622533		-2.390183444
F		1.744669774		4.019094267		0.643419155
F		4.113267224		3.119629385		2.458139804
F		-0.011535503		1.805996258		0.211739189
