12
-186.39349496
Al		-0.077492588		1.639755632		2.155099515
Al		2.525510801		2.606787835		1.76558471
Al		1.357746334		2.665988084		-0.646763369
F		1.001577903		3.091773046		2.836154088
F		-1.578092728		2.683707767		2.177312281
F		-0.492438841		-0.027713151		2.7515645
F		1.809768243		0.867803583		1.9328796
F		2.964806045		1.857997883		-0.073528441
F		1.086595094		3.037291308		-2.395014107
F		1.747451444		4.015486137		0.634133047
F		4.111109828		3.124859432		2.459547495
F		-0.009894236		1.80149304		0.211918628
