12
-186.39349496
Al		-0.073751153		1.630205796		2.153801328
Al		2.526927428		2.603505449		1.764298179
Al		1.352037244		2.680308984		-0.64418509
F		1.004891638		3.08036624		2.842031203
F		-1.575976271		2.67400927		2.186816574
F		-0.486116119		-0.04011067		2.740456238
F		1.813160609		0.863197489		1.922044549
F		2.962255825		1.867868165		-0.080653876
F		1.077131973		3.060606833		-2.38973408
F		1.744411014		4.019429907		0.644282979
F		4.113467912		3.119142869		2.458008856
F		-0.011688179		1.806415162		0.211722497
