12
-186.39349496
Al		-0.073591943		1.62979942		2.153746086
Al		2.52698771		2.603365773		1.764243433
Al		1.351794304		2.680918384		-0.644075376
F		1.005032648		3.079880844		2.842281293
F		-1.575886209		2.673596568		2.187221012
F		-0.485847067		-0.040638224		2.739983546
F		1.813304965		0.863001485		1.921583483
F		2.962147305		1.868288177		-0.080957086
F		1.076729287		3.061598983		-2.389509398
F		1.744281634		4.019597727		0.644714891
F		4.113568256		3.118899611		2.457943382
F		-0.011764517		1.806624614		0.211714151
