12
-186.39349496
Al		-0.073432733		1.629393044		2.153690844
Al		2.527047992		2.603226097		1.764188687
Al		1.351551364		2.681527784		-0.643965662
F		1.005173658		3.079395448		2.842531383
F		-1.575796147		2.673183866		2.18762545
F		-0.485578015		-0.041165778		2.739510854
F		1.813449321		0.862805481		1.921122417
F		2.962038785		1.868708189		-0.081260296
F		1.076326601		3.062591133		-2.389284716
F		1.744152254		4.019765547		0.645146803
F		4.1136686		3.118656353		2.457877908
F		-0.011840855		1.806834066		0.211705805
