12
-186.39349496
Al		-0.073193918		1.62878348		2.153607981
Al		2.527138415		2.603016583		1.764106568
Al		1.351186954		2.682441884		-0.643801091
F		1.005385173		3.078667354		2.842906518
F		-1.575661054		2.672564813		2.188232107
F		-0.485174437		-0.041957109		2.738801816
F		1.813665855		0.862511475		1.920430818
F		2.961876005		1.869338207		-0.081715111
F		1.075722572		3.064079358		-2.388947693
F		1.743958184		4.020017277		0.645794671
F		4.113819116		3.118291466		2.457779697
F		-0.011955362		1.807148244		0.211693286
