12
-186.39349496
Al		-0.073034708		1.628377104		2.153552739
Al		2.527198697		2.602876907		1.764051822
Al		1.350944014		2.683051284		-0.643691377
F		1.005526183		3.078181958		2.843156608
F		-1.575570992		2.672152111		2.188636545
F		-0.484905385		-0.042484663		2.738329124
F		1.813810211		0.862315471		1.919969752
F		2.961767485		1.869758219		-0.082018321
F		1.075319886		3.065071508		-2.388723011
F		1.743828804		4.020185097		0.646226583
F		4.11391946		3.118048208		2.457714223
F		-0.0120317		1.807357696		0.21168494
