12
-186.39349496
Al		-0.072795893		1.62776754		2.153469876
Al		2.52728912		2.602667393		1.763969703
Al		1.350579604		2.683965384		-0.643526806
F		1.005737698		3.077453864		2.843531743
F		-1.575435899		2.671533058		2.189243202
F		-0.484501807		-0.043275994		2.737620086
F		1.814026745		0.862021465		1.919278153
F		2.961604705		1.870388237		-0.082473136
F		1.074715857		3.066559733		-2.388385988
F		1.743634734		4.020436827		0.646874451
F		4.114069976		3.117683321		2.457616012
F		-0.012146207		1.807671874		0.211672421
