12
-186.39349496
Al		-0.072716288		1.627564352		2.153442255
Al		2.527319261		2.602597555		1.76394233
Al		1.350458134		2.684270084		-0.643471949
F		1.005808203		3.077211166		2.843656788
F		-1.575390868		2.671326707		2.189445421
F		-0.484367281		-0.043539771		2.73738374
F		1.814098923		0.861923463		1.91904762
F		2.961550445		1.870598243		-0.082624741
F		1.074514514		3.067055808		-2.388273647
F		1.743570044		4.020520737		0.647090407
F		4.114120148		3.117561692		2.457583275
F		-0.012184376		1.8077766		0.211668248
