12
-186.39349496
Al		-0.072238658		1.626345224		2.153276529
Al		2.527500107		2.602178527		1.763778092
Al		1.349729314		2.686098284		-0.643142807
F		1.006231233		3.075754978		2.844407058
F		-1.575120682		2.670088601		2.190658735
F		-0.483560125		-0.045122433		2.735965664
F		1.814531991		0.861335451		1.917664422
F		2.961224885		1.871858279		-0.083534371
F		1.073306456		3.070032258		-2.387599601
F		1.743181904		4.021024197		0.648386143
F		4.11442118		3.116831918		2.457386853
F		-0.01241339		1.808404956		0.21164321
