12
-186.39349496
Al		-0.071999843		1.62573566		2.153193666
Al		2.52759053		2.601969013		1.763695973
Al		1.349364904		2.687012384		-0.642978236
F		1.006442748		3.075026884		2.844782193
F		-1.574985589		2.669469548		2.191265392
F		-0.483156547		-0.045913764		2.735256626
F		1.814748525		0.861041445		1.916972823
F		2.961062105		1.872488297		-0.083989186
F		1.072702427		3.071520483		-2.387262578
F		1.742987834		4.021275927		0.649034011
F		4.114571696		3.116467031		2.457288642
F		-0.012527897		1.808719134		0.211630691
