12
-186.39349496
Al		-0.071920238		1.625532472		2.153166045
Al		2.527620671		2.601899175		1.7636686
Al		1.349243434		2.687317084		-0.642923379
F		1.006513253		3.074784186		2.844907238
F		-1.574940558		2.669263197		2.191467611
F		-0.483022021		-0.046177541		2.73502028
F		1.814820703		0.860943443		1.91674229
F		2.961007845		1.872698303		-0.084140791
F		1.072501084		3.072016558		-2.387150237
F		1.742923144		4.021359837		0.649249967
F		4.114621868		3.116345402		2.457255905
F		-0.012566066		1.80882386		0.211626518
