12
-186.39349496
Al		-0.077253773		1.639146068		2.155016652
Al		2.525601224		2.606578321		1.765502591
Al		1.357381924		2.666902184		-0.646598798
F		1.001789418		3.091044952		2.836529223
F		-1.577957635		2.683088714		2.177918938
F		-0.492035263		-0.028504482		2.750855462
F		1.809984777		0.867509577		1.932188001
F		2.964643265		1.858627901		-0.073983256
F		1.085991065		3.038779533		-2.394677084
F		1.747257374		4.015737867		0.634780915
F		4.111260344		3.124494545		2.459449284
F		-0.010008743		1.801807218		0.211906109
