12
-186.39349496
Al		-0.071363003		1.624110156		2.152972698
Al		2.527831658		2.601410309		1.763476989
Al		1.348393144		2.689449984		-0.64253938
F		1.007006788		3.0730853		2.845782553
F		-1.574625341		2.66781874		2.192883144
F		-0.482080339		-0.04802398		2.733365858
F		1.815325949		0.860257429		1.915128559
F		2.960628025		1.874168345		-0.085202026
F		1.071091683		3.075489083		-2.38636385
F		1.742470314		4.021947207		0.650761659
F		4.114973072		3.115493999		2.457026746
F		-0.012833249		1.809556942		0.211597307
