12
-186.39349496
Al		-0.071283398		1.623906968		2.152945077
Al		2.527861799		2.601340471		1.763449616
Al		1.348271674		2.689754684		-0.642484523
F		1.007077293		3.072842602		2.845907598
F		-1.57458031		2.667612389		2.193085363
F		-0.481945813		-0.048287757		2.733129512
F		1.815398127		0.860159427		1.914898026
F		2.960573765		1.874378351		-0.085353631
F		1.07089034		3.075985158		-2.386251509
F		1.742405624		4.022031117		0.650977615
F		4.115023244		3.11537237		2.456994009
F		-0.012871418		1.809661668		0.211593134
