12
-186.39349496
Al		-0.071124188		1.623500592		2.152889835
Al		2.527922081		2.601200795		1.76339487
Al		1.348028734		2.690364084		-0.642374809
F		1.007218303		3.072357206		2.846157688
F		-1.574490248		2.667199687		2.193489801
F		-0.481676761		-0.048815311		2.73265682
F		1.815542483		0.859963423		1.91443696
F		2.960465245		1.874798363		-0.085656841
F		1.070487654		3.076977308		-2.386026827
F		1.742276244		4.022198937		0.651409527
F		4.115123588		3.115129112		2.456928535
F		-0.012947756		1.80987112		0.211584788
