12
-186.39349496
Al		-0.070885373		1.622891028		2.152806972
Al		2.528012504		2.600991281		1.763312751
Al		1.347664324		2.691278184		-0.642210238
F		1.007429818		3.071629112		2.846532823
F		-1.574355155		2.666580634		2.194096458
F		-0.481273183		-0.049606642		2.731947782
F		1.815759017		0.859669417		1.913745361
F		2.960302465		1.875428381		-0.086111656
F		1.069883625		3.078465533		-2.385689804
F		1.742082174		4.022450667		0.652057395
F		4.115274104		3.114764225		2.456830324
F		-0.013062263		1.810185298		0.211572269
