12
-186.39349496
Al		-0.070487348		1.621875088		2.152668867
Al		2.528163209		2.600642091		1.763175886
Al		1.347056974		2.692801684		-0.641935953
F		1.007782343		3.070415622		2.847158048
F		-1.57413		2.665548879		2.195107553
F		-0.480600553		-0.050925527		2.730766052
F		1.816119907		0.859179407		1.912592696
F		2.960031165		1.876478411		-0.086869681
F		1.06887691		3.080945908		-2.385128099
F		1.741758724		4.022870217		0.653137175
F		4.115524964		3.11415608		2.456666639
F		-0.013253108		1.810708928		0.211551404
