12
-186.39349496
Al		-0.070168928		1.621062336		2.152558383
Al		2.528283773		2.600362739		1.763066394
Al		1.346571094		2.694020484		-0.641716525
F		1.008064363		3.06944483		2.847658228
F		-1.573949876		2.664723475		2.195916429
F		-0.480062449		-0.051980635		2.729820668
F		1.816408619		0.858787399		1.911670564
F		2.959814125		1.877318435		-0.087476101
F		1.068071538		3.082930208		-2.384678735
F		1.741499964		4.023205857		0.654000999
F		4.115725652		3.113669564		2.456535691
F		-0.013405784		1.811127832		0.211534712
