12
-186.39349496
Al		-0.078845873		1.643209828		2.155569072
Al		2.524998404		2.607975081		1.766050051
Al		1.359811324		2.660808184		-0.647695938
F		1.000379318		3.095898912		2.834028323
F		-1.578858255		2.687215734		2.173874558
F		-0.494725783		-0.023228942		2.755582382
F		1.808541217		0.869469617		1.936798661
F		2.965728465		1.854427781		-0.070951156
F		1.090017925		3.028858033		-2.396923904
F		1.748551174		4.014059667		0.630461795
F		4.110256904		3.126927125		2.460104024
F		-0.009245363		1.799712698		0.211989569
