12
-186.39349496
Al		-0.079084688		1.643819392		2.155651935
Al		2.524907981		2.608184595		1.76613217
Al		1.360175734		2.659894084		-0.647860509
F		1.000167803		3.096627006		2.833653188
F		-1.578993348		2.687834787		2.173267901
F		-0.495129361		-0.022437611		2.75629142
F		1.808324683		0.869763623		1.93749026
F		2.965891245		1.853797763		-0.070496341
F		1.090621954		3.027369808		-2.397260927
F		1.748745244		4.013807937		0.629813927
F		4.110106388		3.127292012		2.460202235
F		-0.009130856		1.79939852		0.212002088
