12
-186.39349496
Al		-0.079323503		1.644428956		2.155734798
Al		2.524817558		2.608394109		1.766214289
Al		1.360540144		2.658979984		-0.64802508
F		0.999956288		3.0973551		2.833278053
F		-1.579128441		2.68845384		2.172661244
F		-0.495532939		-0.02164628		2.757000458
F		1.808108149		0.870057629		1.938181859
F		2.966054025		1.853167745		-0.070041526
F		1.091225983		3.025881583		-2.39759795
F		1.748939314		4.013556207		0.629166059
F		4.109955872		3.127656899		2.460300446
F		-0.009016349		1.799084342		0.212014607
