12
-186.39349496
Al		-0.079721528		1.645444896		2.155872903
Al		2.524666853		2.608743299		1.766351154
Al		1.361147494		2.657456484		-0.648299365
F		0.999603763		3.09856859		2.832652828
F		-1.579353596		2.689485595		2.171650149
F		-0.496205569		-0.020327395		2.758182188
F		1.807747259		0.870547639		1.939334524
F		2.966325325		1.852117715		-0.069283501
F		1.092232698		3.023401208		-2.398159655
F		1.749262764		4.013136657		0.628086279
F		4.109705012		3.128265044		2.460464131
F		-0.008825504		1.798560712		0.212035472
