12
-186.39349496
Al		-0.079801133		1.645648084		2.155900524
Al		2.524636712		2.608813137		1.766378527
Al		1.361268964		2.657151784		-0.648354222
F		0.999533258		3.098811288		2.832527783
F		-1.579398627		2.689691946		2.17144793
F		-0.496340095		-0.020063618		2.758418534
F		1.807675081		0.870645641		1.939565057
F		2.966379585		1.851907709		-0.069131896
F		1.092434041		3.022905133		-2.398271996
F		1.749327454		4.013052747		0.627870323
F		4.10965484		3.128386673		2.460496868
F		-0.008787335		1.798455986		0.212039645
