12
-186.39349496
Al		-0.079880738		1.645851272		2.155928145
Al		2.524606571		2.608882975		1.7664059
Al		1.361390434		2.656847084		-0.648409079
F		0.999462753		3.099053986		2.832402738
F		-1.579443658		2.689898297		2.171245711
F		-0.496474621		-0.019799841		2.75865488
F		1.807602903		0.870743643		1.93979559
F		2.966433845		1.851697703		-0.068980291
F		1.092635384		3.022409058		-2.398384337
F		1.749392144		4.012968837		0.627654367
F		4.109604668		3.128508302		2.460529605
F		-0.008749166		1.79835126		0.212043818
