12
-186.39349496
Al		-0.078129428		1.641381136		2.155320483
Al		2.525269673		2.607346539		1.765803694
Al		1.358718094		2.663550484		-0.647202225
F		1.001013863		3.09371463		2.835153728
F		-1.578452976		2.685358575		2.175694529
F		-0.493515049		-0.025602935		2.753455268
F		1.809190819		0.868587599		1.934723864
F		2.965240125		1.856317835		-0.072315601
F		1.088205838		3.033322708		-2.395912835
F		1.747968964		4.014814857		0.632405399
F		4.110708452		3.125832464		2.459809391
F		-0.009588884		1.800655232		0.211952012
