12
-186.39349496
Al		-0.080517578		1.647476776		2.156149113
Al		2.524365443		2.609441679		1.766624884
Al		1.362362194		2.654409484		-0.648847935
F		0.998898713		3.10099557		2.831402378
F		-1.579803906		2.691549105		2.169627959
F		-0.497550829		-0.017689625		2.760545648
F		1.807025479		0.871527659		1.941639854
F		2.966867925		1.850017655		-0.067767451
F		1.094246128		3.018440458		-2.399283065
F		1.749909664		4.012297557		0.625926719
F		4.109203292		3.129481334		2.460791501
F		-0.008443814		1.797513452		0.212077202
