12
-186.39349496
Al		-0.080835998		1.648289528		2.156259597
Al		2.524244879		2.609721031		1.766734376
Al		1.362848074		2.653190684		-0.649067363
F		0.998616693		3.101966362		2.830902198
F		-1.57998403		2.692374509		2.168819083
F		-0.498088933		-0.016634517		2.761491032
F		1.806736767		0.871919667		1.942561986
F		2.967084965		1.849177631		-0.067161031
F		1.0950515		3.016456158		-2.399732429
F		1.750168424		4.011961917		0.625062895
F		4.109002604		3.12996785		2.460922449
F		-0.008291138		1.797094548		0.212093894
