12
-186.39349496
Al		-0.080915603		1.648492716		2.156287218
Al		2.524214738		2.609790869		1.766761749
Al		1.362969544		2.652885984		-0.64912222
F		0.998546188		3.10220906		2.830777153
F		-1.580029061		2.69258086		2.168616864
F		-0.498223459		-0.01637074		2.761727378
F		1.806664589		0.872017669		1.942792519
F		2.967139225		1.848967625		-0.067009426
F		1.095252843		3.015960083		-2.39984477
F		1.750233114		4.011878007		0.624846939
F		4.108952432		3.130089479		2.460955186
F		-0.008252969		1.796989822		0.212098067
