12
-186.39349496
Al		-0.081074813		1.648899092		2.15634246
Al		2.524154456		2.609930545		1.766816495
Al		1.363212484		2.652276584		-0.649231934
F		0.998405178		3.102694456		2.830527063
F		-1.580119123		2.692993562		2.168212426
F		-0.498492511		-0.015843186		2.76220007
F		1.806520233		0.872213673		1.943253585
F		2.967247745		1.848547613		-0.066706216
F		1.095655529		3.014967933		-2.400069452
F		1.750362494		4.011710187		0.624415027
F		4.108852088		3.130332737		2.46102066
F		-0.008176631		1.79678037		0.212106413
