12
-186.39349496
Al		-0.081393233		1.649711844		2.156452944
Al		2.524033892		2.610209897		1.766925987
Al		1.363698364		2.651057784		-0.649451362
F		0.998123158		3.103665248		2.830026883
F		-1.580299247		2.693818966		2.16740355
F		-0.499030615		-0.014788078		2.763145454
F		1.806231521		0.872605681		1.944175717
F		2.967464785		1.847707589		-0.066099796
F		1.096460901		3.012983633		-2.400518816
F		1.750621254		4.011374547		0.623551203
F		4.1086514		3.130819253		2.461151608
F		-0.008023955		1.796361466		0.212123105
