12
-186.39349496
Al		-0.081870863		1.650930972		2.15661867
Al		2.523853046		2.610628925		1.767090225
Al		1.364427184		2.649229584		-0.649780504
F		0.997700128		3.105121436		2.829276613
F		-1.580569433		2.695057072		2.166190236
F		-0.499837771		-0.013205416		2.76456353
F		1.805798453		0.873193693		1.945558915
F		2.967790345		1.846447553		-0.065190166
F		1.097668959		3.010007183		-2.401192862
F		1.751009394		4.010871087		0.622255467
F		4.108350368		3.131549027		2.46134803
F		-0.007794941		1.79573311		0.212148143
