12
-186.39349496
Al		-0.082030073		1.651337348		2.156673912
Al		2.523792764		2.610768601		1.767144971
Al		1.364670124		2.648620184		-0.649890218
F		0.997559118		3.105606832		2.829026523
F		-1.580659495		2.695469774		2.165785798
F		-0.500106823		-0.012677862		2.765036222
F		1.805654097		0.873389697		1.946019981
F		2.967898865		1.846027541		-0.064886956
F		1.098071645		3.009015033		-2.401417544
F		1.751138774		4.010703267		0.621823555
F		4.108250024		3.131792285		2.461413504
F		-0.007718603		1.795523658		0.212156489
