12
-186.39349496
Al		-0.082268888		1.651946912		2.156756775
Al		2.523702341		2.610978115		1.76722709
Al		1.365034534		2.647706084		-0.650054789
F		0.997347603		3.106334926		2.828651388
F		-1.580794588		2.696088827		2.165179141
F		-0.500510401		-0.011886531		2.76574526
F		1.805437563		0.873683703		1.94671158
F		2.968061645		1.845397523		-0.064432141
F		1.098675674		3.007526808		-2.401754567
F		1.751332844		4.010451537		0.621175687
F		4.108099508		3.132157172		2.461511715
F		-0.007604096		1.79520948		0.212169008
