12
-186.39349496
Al		-0.082348493		1.6521501		2.156784396
Al		2.5236722		2.611047953		1.767254463
Al		1.365156004		2.647401384		-0.650109646
F		0.997277098		3.106577624		2.828526343
F		-1.580839619		2.696295178		2.164976922
F		-0.500644927		-0.011622754		2.765981606
F		1.805365385		0.873781705		1.946942113
F		2.968115905		1.845187517		-0.064280536
F		1.098877017		3.007030733		-2.401866908
F		1.751397534		4.010367627		0.620959731
F		4.108049336		3.132278801		2.461544452
F		-0.007565927		1.795104754		0.212173181
