12
-186.39349496
Al		-0.078368243		1.6419907		2.155403346
Al		2.52517925		2.607556053		1.765885813
Al		1.359082504		2.662636384		-0.647366796
F		1.000802348		3.094442724		2.834778593
F		-1.578588069		2.685977628		2.175087872
F		-0.493918627		-0.024811604		2.754164306
F		1.808974285		0.868881605		1.935415463
F		2.965402905		1.855687817		-0.071860786
F		1.088809867		3.031834483		-2.396249858
F		1.748163034		4.014563127		0.631757531
F		4.110557936		3.126197351		2.459907602
F		-0.009474377		1.800341054		0.211964531
