12
-186.39349496
Al		-0.082826123		1.653369228		2.156950122
Al		2.523491354		2.611466981		1.767418701
Al		1.365884824		2.645573184		-0.650438788
F		0.996854068		3.108033812		2.827776073
F		-1.581109805		2.697533284		2.163763608
F		-0.501452083		-0.010040092		2.767399682
F		1.804932317		0.874369717		1.948325311
F		2.968441465		1.843927481		-0.063370906
F		1.100085075		3.004054283		-2.402540954
F		1.751785674		4.009864167		0.619663995
F		4.107748304		3.133008575		2.461740874
F		-0.007336913		1.794476398		0.212198219
