12
-186.39349496
Al		-0.082985333		1.653775604		2.157005364
Al		2.523431072		2.611606657		1.767473447
Al		1.366127764		2.644963784		-0.650548502
F		0.996713058		3.108519208		2.827525983
F		-1.581199867		2.697945986		2.16335917
F		-0.501721135		-0.009512538		2.767872374
F		1.804787961		0.874565721		1.948786377
F		2.968549985		1.843507469		-0.063067696
F		1.100487761		3.003062133		-2.402765636
F		1.751915054		4.009696347		0.619232083
F		4.10764796		3.133251833		2.461806348
F		-0.007260575		1.794266946		0.212206565
