12
-186.39349496
Al		-0.083064938		1.653978792		2.157032985
Al		2.523400931		2.611676495		1.76750082
Al		1.366249234		2.644659084		-0.650603359
F		0.996642553		3.108761906		2.827400938
F		-1.581244898		2.698152337		2.163156951
F		-0.501855661		-0.009248761		2.76810872
F		1.804715783		0.874663723		1.94901691
F		2.968604245		1.843297463		-0.062916091
F		1.100689104		3.002566058		-2.402877977
F		1.751979744		4.009612437		0.619016127
F		4.107597788		3.133373462		2.461839085
F		-0.007222406		1.79416222		0.212210738
