12
-186.39349496
Al		-0.083224148		1.654385168		2.157088227
Al		2.523340649		2.611816171		1.767555566
Al		1.366492174		2.644049684		-0.650713073
F		0.996501543		3.109247302		2.827150848
F		-1.58133496		2.698565039		2.162752513
F		-0.502124713		-0.008721207		2.768581412
F		1.804571427		0.874859727		1.949477976
F		2.968712765		1.842877451		-0.062612881
F		1.10109179		3.001573908		-2.403102659
F		1.752109124		4.009444617		0.618584215
F		4.107497444		3.13361672		2.461904559
F		-0.007146068		1.793952768		0.212219084
