12
-186.39349496
Al		-0.084577433		1.657839364		2.157557784
Al		2.522828252		2.613003417		1.768020907
Al		1.368557164		2.638869784		-0.651645642
F		0.995302958		3.113373168		2.825025083
F		-1.582100487		2.702073006		2.15931479
F		-0.504411655		-0.004236998		2.772599294
F		1.803344401		0.876525761		1.953397037
F		2.969635185		1.839307349		-0.060035596
F		1.104514621		2.993140633		-2.405012456
F		1.753208854		4.008018147		0.614912963
F		4.10664452		3.135684413		2.462461088
F		-0.006497195		1.792172426		0.212290025
