12
-186.39349496
Al		-0.084736643		1.65824574		2.157613026
Al		2.52276797		2.613143093		1.768075653
Al		1.368800104		2.638260384		-0.651755356
F		0.995161948		3.113858564		2.824774993
F		-1.582190549		2.702485708		2.158910352
F		-0.504680707		-0.003709444		2.773071986
F		1.803200045		0.876721765		1.953858103
F		2.969743705		1.838887337		-0.059732386
F		1.104917307		2.992148483		-2.405237138
F		1.753338234		4.007850327		0.614481051
F		4.106544176		3.135927671		2.462526562
F		-0.006420857		1.791962974		0.212298371
