12
-186.39349496
Al		-0.085134668		1.65926168		2.157751131
Al		2.522617265		2.613492283		1.768212518
Al		1.369407454		2.636736884		-0.652029641
F		0.994809423		3.115072054		2.824149768
F		-1.582415704		2.703517463		2.157899257
F		-0.505353337		-0.002390559		2.774253716
F		1.802839155		0.877211775		1.955010768
F		2.970015005		1.837837307		-0.058974361
F		1.105924022		2.989668108		-2.405798843
F		1.753661684		4.007430777		0.613401271
F		4.106293316		3.136535816		2.462690247
F		-0.006230012		1.791439344		0.212319236
