12
-186.39349496
Al		-0.085373483		1.659871244		2.157833994
Al		2.522526842		2.613701797		1.768294637
Al		1.369771864		2.635822784		-0.652194212
F		0.994597908		3.115800148		2.823774633
F		-1.582550797		2.704136516		2.1572926
F		-0.505756915		-0.001599228		2.774962754
F		1.802622621		0.877505781		1.955702367
F		2.970177785		1.837207289		-0.058519546
F		1.106528051		2.988179883		-2.406135866
F		1.753855754		4.007179047		0.612753403
F		4.1061428		3.136900703		2.462788458
F		-0.006115505		1.791125166		0.212331755
