      12
SCF Done            -183.39286496
Al           -0.188894657         1.563155596         2.442656521
Al            2.440363096         2.461023025         1.688186575
Al            1.287887658         2.493276581        -0.509266653
F             0.905043352         3.198131519         2.607673832
F            -1.439868947         2.981550543         1.907253095
F            -0.272470460        -0.319861218         2.691510260
F             1.654465369         0.743003585         1.909667234
F             3.250138342         2.168636872        -0.120251454
F             1.139101714         3.070977952        -2.219497804
F             1.880642868         4.008718587         0.530650265
F             3.982889966         3.128959611         2.340305168
F            -0.141597400         1.943369368         0.473376505
