      12
SCF Done            -183.37431188
Al            0.348385772        -2.309665811        -1.985037261
Al            2.107557930        -0.522572456        -0.965346024
Al           -0.262324406         0.327484703        -1.959941483
F             3.619513288        -0.181435816        -0.019447423
F            -0.172435974        -4.033570093        -2.217423036
F             2.033530438        -1.790576876        -2.208673389
F             1.478517895         0.606062339        -2.185866420
F            -1.488840422         1.650888331        -2.163328311
F            -1.220448686        -1.293646252        -0.925915369
F            -0.120215974        -1.018045909        -3.112560581
F             0.473500796         0.427189198         0.055969598
F             1.061568134        -2.112186410         0.031804227
