12
-187.24475565
Al		0.372827795		-0.599017078		1.743793617
Al		2.332526763		-1.798837754		-0.55251579
Al		-0.919793982		-1.82088034		-0.965432836
F		3.480642611		-0.495677893		-1.081158203
F		-1.821312051		-0.564959989		-1.915492021
F		2.752168387		-3.563780277		-0.471187792
F		-1.205756573		-3.611339785		-1.084672169
F		1.906596196		-1.403648432		1.1831651
F		0.804218364		-1.508847282		-1.493293265
F		0.092747051		-1.172569041		3.440913381
F		0.410449679		1.135209866		1.199197672
F		-0.959229669		-1.462861521		0.823856612
