12
-187.24475565
Al		0.352179261		-0.599282298		1.740785506
Al		2.348525937		-1.789854183		-0.523090343
Al		-0.895844972		-1.829350826		-0.989038573
F		3.47665194		-0.496258974		-1.109300893
F		-1.833178243		-0.56458254		-1.889659415
F		2.738523797		-3.562499923		-0.489590144
F		-1.224046963		-3.613030251		-1.070922114
F		1.897806378		-1.413732933		1.207779207
F		0.828775066		-1.508531866		-1.489715821
F		0.107133634		-1.172384277		3.443009242
F		0.40674363		1.135162251		1.198657798
F		-0.960883467		-1.452911143		0.79772105
