12
-187.24475565
Al		0.353571297		-0.599264418		1.7409883
Al		2.347447341		-1.790459817		-0.525074081
Al		-0.897459512		-1.828779782		-0.987447175
F		3.476920974		-0.4962198		-1.107403633
F		-1.832378275		-0.564607986		-1.891400939
F		2.739443657		-3.562586239		-0.488349536
F		-1.222813903		-3.612916287		-1.071849084
F		1.89839895		-1.413053079		1.206119829
F		0.827119558		-1.50855313		-1.489956997
F		0.106163752		-1.172396733		3.442867948
F		0.406993476		1.135165461		1.198694194
F		-0.960771975		-1.453581955		0.799482998
