12
-187.24475565
Al		0.353803303		-0.599261438		1.741022099
Al		2.347267575		-1.790560756		-0.525404704
Al		-0.897728602		-1.828684608		-0.987181942
F		3.476965813		-0.496213271		-1.107087423
F		-1.832244947		-0.564612227		-1.891691193
F		2.739596967		-3.562600625		-0.488142768
F		-1.222608393		-3.612897293		-1.072003579
F		1.898497712		-1.41293977		1.205843266
F		0.82684364		-1.508556674		-1.489997193
F		0.106002105		-1.172398809		3.442844399
F		0.407035117		1.135165996		1.19870026
F		-0.960753393		-1.453693757		0.799776656
