12
-187.24475565
Al		0.354035309		-0.599258458		1.741055898
Al		2.347087809		-1.790661695		-0.525735327
Al		-0.897997692		-1.828589434		-0.986916709
F		3.477010652		-0.496206742		-1.106771213
F		-1.832111619		-0.564616468		-1.891981447
F		2.739750277		-3.562615011		-0.487936
F		-1.222402883		-3.612878299		-1.072158074
F		1.898596474		-1.412826461		1.205566703
F		0.826567722		-1.508560218		-1.490037389
F		0.105840458		-1.172400885		3.44282085
F		0.407076758		1.135166531		1.198706326
F		-0.960734811		-1.453805559		0.800070314
