12
-187.24475565
Al		0.356819381		-0.599222698		1.741461486
Al		2.344930617		-1.791872963		-0.529702803
Al		-0.901226772		-1.827447346		-0.983733913
F		3.47754872		-0.496128394		-1.102976693
F		-1.830511683		-0.56466736		-1.895464495
F		2.741589997		-3.562787643		-0.485454784
F		-1.219936763		-3.612650371		-1.074012014
F		1.899781618		-1.411466753		1.202247947
F		0.823256706		-1.508602746		-1.490519741
F		0.103900694		-1.172425797		3.442538262
F		0.40757645		1.135172951		1.198779118
F		-0.960511827		-1.455147183		0.80359421
