12
-187.24475565
Al		0.357747405		-0.599210778		1.741596682
Al		2.344211553		-1.792276719		-0.531025295
Al		-0.902303132		-1.82706665		-0.982672981
F		3.477728076		-0.496102278		-1.101711853
F		-1.829978371		-0.564684324		-1.896625511
F		2.742203237		-3.562845187		-0.484627712
F		-1.219114723		-3.612574395		-1.074629994
F		1.900176666		-1.411013517		1.201141695
F		0.822153034		-1.508616922		-1.490680525
F		0.103254106		-1.172434101		3.442444066
F		0.407743014		1.135175091		1.198803382
F		-0.960437499		-1.455594391		0.804768842
