12
-187.24475565
Al		0.358211417		-0.599204818		1.74166428
Al		2.343852021		-1.792478597		-0.531686541
Al		-0.902841312		-1.826876302		-0.982142515
F		3.477817754		-0.49608922		-1.101079433
F		-1.829711715		-0.564692806		-1.897206019
F		2.742509857		-3.562873959		-0.484214176
F		-1.218703703		-3.612536407		-1.074938984
F		1.90037419		-1.410786899		1.200588569
F		0.821601198		-1.50862401		-1.490760917
F		0.102930812		-1.172438253		3.442396968
F		0.407826296		1.135176161		1.198815514
F		-0.960400335		-1.455817995		0.805356158
