12
-187.24475565
Al		0.358675429		-0.599198858		1.741731878
Al		2.343492489		-1.792680475		-0.532347787
Al		-0.903379492		-1.826685954		-0.981612049
F		3.477907432		-0.496076162		-1.100447013
F		-1.829445059		-0.564701288		-1.897786527
F		2.742816477		-3.562902731		-0.48380064
F		-1.218292683		-3.612498419		-1.075247974
F		1.900571714		-1.410560281		1.200035443
F		0.821049362		-1.508631098		-1.490841309
F		0.102607518		-1.172442405		3.44234987
F		0.407909578		1.135177231		1.198827646
F		-0.960363171		-1.456041599		0.805943474
