12
-187.24475565
Al		0.350555219		-0.599303158		1.740548913
Al		2.349784299		-1.78914761		-0.520775982
Al		-0.893961342		-1.830017044		-0.990895204
F		3.476338067		-0.496304677		-1.111514363
F		-1.834111539		-0.564552853		-1.887627637
F		2.737450627		-3.562399221		-0.49103752
F		-1.225485533		-3.613163209		-1.069840649
F		1.897115044		-1.414526096		1.209715148
F		0.830706492		-1.508507058		-1.489434449
F		0.108265163		-1.172369745		3.443174085
F		0.406452143		1.135158506		1.198615336
F		-0.961013541		-1.452128529		0.795665444
