12
-187.24475565
Al		0.359139441		-0.599192898		1.741799476
Al		2.343132957		-1.792882353		-0.533009033
Al		-0.903917672		-1.826495606		-0.981081583
F		3.47799711		-0.496063104		-1.099814593
F		-1.829178403		-0.56470977		-1.898367035
F		2.743123097		-3.562931503		-0.483387104
F		-1.217881663		-3.612460431		-1.075556964
F		1.900769238		-1.410333663		1.199482317
F		0.820497526		-1.508638186		-1.490921701
F		0.102284224		-1.172446557		3.442302772
F		0.40799286		1.135178301		1.198839778
F		-0.960326007		-1.456265203		0.80653079
