12
-187.24475565
Al		0.359371447		-0.599189918		1.741833275
Al		2.342953191		-1.792983292		-0.533339656
Al		-0.904186762		-1.826400432		-0.98081635
F		3.478041949		-0.496056575		-1.099498383
F		-1.829045075		-0.564714011		-1.898657289
F		2.743276407		-3.562945889		-0.483180336
F		-1.217676153		-3.612441437		-1.075711459
F		1.900868		-1.410220354		1.199205754
F		0.820221608		-1.50864173		-1.490961897
F		0.102122577		-1.172448633		3.442279223
F		0.408034501		1.135178836		1.198845844
F		-0.960307425		-1.456377005		0.806824448
