12
-187.24475565
Al		0.360067465		-0.599180978		1.741934672
Al		2.342413893		-1.793286109		-0.534331525
Al		-0.904994032		-1.82611491		-0.980020651
F		3.478176466		-0.496036988		-1.098549753
F		-1.828645091		-0.564726734		-1.899528051
F		2.743736337		-3.562989047		-0.482560032
F		-1.217059623		-3.612384455		-1.076174944
F		1.901164286		-1.409880427		1.198376065
F		0.819393854		-1.508652362		-1.491082485
F		0.101637636		-1.172454861		3.442208576
F		0.408159424		1.135180441		1.198864042
F		-0.960251679		-1.456712411		0.807705422
