12
-187.24475565
Al		0.360763483		-0.599172038		1.742036069
Al		2.341874595		-1.793588926		-0.535323394
Al		-0.905801302		-1.825829388		-0.979224952
F		3.478310983		-0.496017401		-1.097601123
F		-1.828245107		-0.564739457		-1.900398813
F		2.744196267		-3.563032205		-0.481939728
F		-1.216443093		-3.612327473		-1.076638429
F		1.901460572		-1.4095405		1.197546376
F		0.8185661		-1.508662994		-1.491203073
F		0.101152695		-1.172461089		3.442137929
F		0.408284347		1.135182046		1.19888224
F		-0.960195933		-1.457047817		0.808586396
