12
-187.24475565
Al		0.361923513		-0.599157138		1.742205064
Al		2.340975765		-1.794093621		-0.536976509
Al		-0.907146752		-1.825353518		-0.977898787
F		3.478535178		-0.495984756		-1.096020073
F		-1.827578467		-0.564760662		-1.901850083
F		2.744962817		-3.563104135		-0.480905888
F		-1.215415543		-3.612232503		-1.077410904
F		1.901954382		-1.408973955		1.196163561
F		0.81718651		-1.508680714		-1.491404053
F		0.10034446		-1.172471469		3.442020184
F		0.408492552		1.135184721		1.19891257
F		-0.960103023		-1.457606827		0.810054686
