12
-187.24475565
Al		0.362851537		-0.599145218		1.74234026
Al		2.340256701		-1.794497377		-0.538299001
Al		-0.908223112		-1.824972822		-0.976837855
F		3.478714534		-0.49595864		-1.094755233
F		-1.827045155		-0.564777626		-1.903011099
F		2.745576057		-3.563161679		-0.480078816
F		-1.214593503		-3.612156527		-1.078028884
F		1.90234943		-1.408520719		1.195057309
F		0.816082838		-1.50869489		-1.491564837
F		0.099697872		-1.172479773		3.441925988
F		0.408659116		1.135186861		1.198936834
F		-0.960028695		-1.458054035		0.811229318
