12
-187.24475565
Al		0.351019231		-0.599297198		1.740616511
Al		2.349424767		-1.789349488		-0.521437228
Al		-0.894499522		-1.829826696		-0.990364738
F		3.476427745		-0.496291619		-1.110881943
F		-1.833844883		-0.564561335		-1.888208145
F		2.737757247		-3.562427993		-0.490623984
F		-1.225074513		-3.613125221		-1.070149639
F		1.897312568		-1.414299478		1.209162022
F		0.830154656		-1.508514146		-1.489514841
F		0.107941869		-1.172373897		3.443126987
F		0.406535425		1.135159576		1.198627468
F		-0.960976377		-1.452352133		0.79625276
