12
-187.24475565
Al		0.364011567		-0.599130318		1.742509255
Al		2.339357871		-1.795002072		-0.539952116
Al		-0.909568562		-1.824496952		-0.97551169
F		3.478938729		-0.495925995		-1.093174183
F		-1.826378515		-0.564798831		-1.904462369
F		2.746342607		-3.563233609		-0.479044976
F		-1.213565953		-3.612061557		-1.078801359
F		1.90284324		-1.407954174		1.193674494
F		0.814703248		-1.50871261		-1.491765817
F		0.098889637		-1.172490153		3.441808243
F		0.408867321		1.135189536		1.198967164
F		-0.959935785		-1.458613045		0.812697608
