12
-187.24475565
Al		0.351251237		-0.599294218		1.74065031
Al		2.349245001		-1.789450427		-0.521767851
Al		-0.894768612		-1.829731522		-0.990099505
F		3.476472584		-0.49628509		-1.110565733
F		-1.833711555		-0.564565576		-1.888498399
F		2.737910557		-3.562442379		-0.490417216
F		-1.224869003		-3.613106227		-1.070304134
F		1.89741133		-1.414186169		1.208885459
F		0.829878738		-1.50851769		-1.489555037
F		0.107780222		-1.172375973		3.443103438
F		0.406577066		1.135160111		1.198633534
F		-0.960957795		-1.452463935		0.796546418
