12
-187.24475565
Al		0.366331627		-0.599100518		1.742847245
Al		2.337560211		-1.796011462		-0.543258346
Al		-0.912259462		-1.823545212		-0.97285936
F		3.479387119		-0.495860705		-1.090012083
F		-1.825045235		-0.564841241		-1.907364909
F		2.747875707		-3.563377469		-0.476977296
F		-1.211510853		-3.611871617		-1.080346309
F		1.90383086		-1.406821084		1.190908864
F		0.811944068		-1.50874805		-1.492167777
F		0.097273167		-1.172510913		3.441572753
F		0.409283731		1.135194886		1.199027824
F		-0.959749965		-1.459731065		0.815634188
