12
-187.24475565
Al		0.366563633		-0.599097538		1.742881044
Al		2.337380445		-1.796112401		-0.543588969
Al		-0.912528552		-1.823450038		-0.972594127
F		3.479431958		-0.495854176		-1.089695873
F		-1.824911907		-0.564845482		-1.907655163
F		2.748029017		-3.563391855		-0.476770528
F		-1.211305343		-3.611852623		-1.080500804
F		1.903929622		-1.406707775		1.190632301
F		0.81166815		-1.508751594		-1.492207973
F		0.09711152		-1.172512989		3.441549204
F		0.409325372		1.135195421		1.19903389
F		-0.959731383		-1.459842867		0.815927846
