12
-187.24475565
Al		0.366795639		-0.599094558		1.742914843
Al		2.337200679		-1.79621334		-0.543919592
Al		-0.912797642		-1.823354864		-0.972328894
F		3.479476797		-0.495847647		-1.089379663
F		-1.824778579		-0.564849723		-1.907945417
F		2.748182327		-3.563406241		-0.47656376
F		-1.211099833		-3.611833629		-1.080655299
F		1.904028384		-1.406594466		1.190355738
F		0.811392232		-1.508755138		-1.492248169
F		0.096949873		-1.172515065		3.441525655
F		0.409367013		1.135195956		1.199039956
F		-0.959712801		-1.459954669		0.816221504
