12
-187.24475565
Al		0.367259651		-0.599088598		1.742982441
Al		2.336841147		-1.796415218		-0.544580838
Al		-0.913335822		-1.823164516		-0.971798428
F		3.479566475		-0.495834589		-1.088747243
F		-1.824511923		-0.564858205		-1.908525925
F		2.748488947		-3.563435013		-0.476150224
F		-1.210688813		-3.611795641		-1.080964289
F		1.904225908		-1.406367848		1.189802612
F		0.810840396		-1.508762226		-1.492328561
F		0.096626579		-1.172519217		3.441478557
F		0.409450295		1.135197026		1.199052088
F		-0.959675637		-1.460178273		0.81680882
