12
-187.24475565
Al		0.367491657		-0.599085618		1.74301624
Al		2.336661381		-1.796516157		-0.544911461
Al		-0.913604912		-1.823069342		-0.971533195
F		3.479611314		-0.49582806		-1.088431033
F		-1.824378595		-0.564862446		-1.908816179
F		2.748642257		-3.563449399		-0.475943456
F		-1.210483303		-3.611776647		-1.081118784
F		1.90432467		-1.406254539		1.189526049
F		0.810564478		-1.50876577		-1.492368757
F		0.096464932		-1.172521293		3.441455008
F		0.409491936		1.135197561		1.199058154
F		-0.959657055		-1.460290075		0.817102478
