12
-187.24475565
Al		0.351483243		-0.599291238		1.740684109
Al		2.349065235		-1.789551366		-0.522098474
Al		-0.895037702		-1.829636348		-0.989834272
F		3.476517423		-0.496278561		-1.110249523
F		-1.833578227		-0.564569817		-1.888788653
F		2.738063867		-3.562456765		-0.490210448
F		-1.224663493		-3.613087233		-1.070458629
F		1.897510092		-1.41407286		1.208608896
F		0.82960282		-1.508521234		-1.489595233
F		0.107618575		-1.172378049		3.443079889
F		0.406618707		1.135160646		1.1986396
F		-0.960939213		-1.452575737		0.796840076
