12
-187.24475565
Al		0.368883693		-0.599067738		1.743219034
Al		2.335582785		-1.797121791		-0.546895199
Al		-0.915219452		-1.822498298		-0.969941797
F		3.479880348		-0.495788886		-1.086533773
F		-1.823578627		-0.564887892		-1.910557703
F		2.749562117		-3.563535715		-0.474702848
F		-1.209250243		-3.611662683		-1.082045754
F		1.904917242		-1.405574685		1.187866671
F		0.80890897		-1.508787034		-1.492609933
F		0.09549505		-1.172533749		3.441313714
F		0.409741782		1.135200771		1.19909455
F		-0.959545563		-1.460960887		0.818864426
