12
-187.24475565
Al		0.369347705		-0.599061778		1.743286632
Al		2.335223253		-1.797323669		-0.547556445
Al		-0.915757632		-1.82230795		-0.969411331
F		3.479970026		-0.495775828		-1.085901353
F		-1.823311971		-0.564896374		-1.911138211
F		2.749868737		-3.563564487		-0.474289312
F		-1.208839223		-3.611624695		-1.082354744
F		1.905114766		-1.405348067		1.187313545
F		0.808357134		-1.508794122		-1.492690325
F		0.095171756		-1.172537901		3.441266616
F		0.409825064		1.135201841		1.199106682
F		-0.959508399		-1.461184491		0.819451742
