12
-187.24475565
Al		0.369579711		-0.599058798		1.743320431
Al		2.335043487		-1.797424608		-0.547887068
Al		-0.916026722		-1.822212776		-0.969146098
F		3.480014865		-0.495769299		-1.085585143
F		-1.823178643		-0.564900615		-1.911428465
F		2.750022047		-3.563578873		-0.474082544
F		-1.208633713		-3.611605701		-1.082509239
F		1.905213528		-1.405234758		1.187036982
F		0.808081216		-1.508797666		-1.492730521
F		0.095010109		-1.172539977		3.441243067
F		0.409866705		1.135202376		1.199112748
F		-0.959489817		-1.461296293		0.8197454
