12
-187.24475565
Al		0.370507735		-0.599046878		1.743455627
Al		2.334324423		-1.797828364		-0.54920956
Al		-0.917103082		-1.82183208		-0.968085166
F		3.480194221		-0.495743183		-1.084320303
F		-1.822645331		-0.564917579		-1.912589481
F		2.750635287		-3.563636417		-0.473255472
F		-1.207811673		-3.611529725		-1.083127219
F		1.905608576		-1.404781522		1.18593073
F		0.806977544		-1.508811842		-1.492891305
F		0.094363521		-1.172548281		3.441148871
F		0.410033269		1.135204516		1.199137012
F		-0.959415489		-1.461743501		0.820920032
