12
-187.24475565
Al		0.371667765		-0.599031978		1.743624622
Al		2.333425593		-1.798333059		-0.550862675
Al		-0.918448532		-1.82135621		-0.966759001
F		3.480418416		-0.495710538		-1.082739253
F		-1.821978691		-0.564938784		-1.914040751
F		2.751401837		-3.563708347		-0.472221632
F		-1.206784123		-3.611434755		-1.083899694
F		1.906102386		-1.404214977		1.184547915
F		0.805597954		-1.508829562		-1.493092285
F		0.093555286		-1.172558661		3.441031126
F		0.410241474		1.135207191		1.199167342
F		-0.959322579		-1.462302511		0.822388322
