12
-187.24475565
Al		0.372595789		-0.599020058		1.743759818
Al		2.332706529		-1.798736815		-0.552185167
Al		-0.919524892		-1.820975514		-0.965698069
F		3.480597772		-0.495684422		-1.081474413
F		-1.821445379		-0.564955748		-1.915201767
F		2.752015077		-3.563765891		-0.47139456
F		-1.205962083		-3.611358779		-1.084517674
F		1.906497434		-1.403761741		1.183441663
F		0.804494282		-1.508843738		-1.493253069
F		0.092908698		-1.172566965		3.44093693
F		0.410408038		1.135209331		1.199191606
F		-0.959248251		-1.462749719		0.823562954
