12
-187.24475565
Al		0.349395189		-0.599318058		1.740379918
Al		2.350683129		-1.788642915		-0.519122867
Al		-0.892615892		-1.830492914		-0.992221369
F		3.476113872		-0.496337322		-1.113095413
F		-1.834778179		-0.564531648		-1.886176367
F		2.736684077		-3.562327291		-0.49207136
F		-1.226513083		-3.613258179		-1.069068174
F		1.896621234		-1.415092641		1.211097963
F		0.832086082		-1.508489338		-1.489233469
F		0.109073398		-1.172359365		3.44329183
F		0.406243938		1.135155831		1.198585006
F		-0.961106451		-1.451569519		0.794197154
