12
-187.24475565
Al		0.347307135		-0.599344878		1.740075727
Al		2.352301023		-1.787734464		-0.51614726
Al		-0.890194082		-1.83134948		-0.994608466
F		3.475710321		-0.496396083		-1.115941303
F		-1.835978131		-0.564493479		-1.883564081
F		2.735304287		-3.562197817		-0.493932272
F		-1.228362673		-3.613429125		-1.067677719
F		1.895732376		-1.416112422		1.21358703
F		0.834569344		-1.508457442		-1.488871705
F		0.110528221		-1.172340681		3.443503771
F		0.405869169		1.135151016		1.198530412
F		-0.961273689		-1.450563301		0.791554232
