12
-187.24475565
Al		0.345219081		-0.599371698		1.739771536
Al		2.353918917		-1.786826013		-0.513171653
Al		-0.887772272		-1.832206046		-0.996995563
F		3.47530677		-0.496454844		-1.118787193
F		-1.837178083		-0.56445531		-1.880951795
F		2.733924497		-3.562068343		-0.495793184
F		-1.230212263		-3.613600071		-1.066287264
F		1.894843518		-1.417132203		1.216076097
F		0.837052606		-1.508425546		-1.488509941
F		0.111983044		-1.172321997		3.443715712
F		0.4054944		1.135146201		1.198475818
F		-0.961440927		-1.449557083		0.78891131
