12
-187.24475565
Al		0.344987075		-0.599374678		1.739737737
Al		2.354098683		-1.786725074		-0.51284103
Al		-0.887503182		-1.83230122		-0.997260796
F		3.475261931		-0.496461373		-1.119103403
F		-1.837311411		-0.564451069		-1.880661541
F		2.733771187		-3.562053957		-0.495999952
F		-1.230417773		-3.613619065		-1.066132769
F		1.894744756		-1.417245512		1.21635266
F		0.837328524		-1.508422002		-1.488469745
F		0.112144691		-1.172319921		3.443739261
F		0.405452759		1.135145666		1.198469752
F		-0.961459509		-1.449445281		0.788617652
