12
-187.24475565
Al		0.344755069		-0.599377658		1.739703938
Al		2.354278449		-1.786624135		-0.512510407
Al		-0.887234092		-1.832396394		-0.997526029
F		3.475217092		-0.496467902		-1.119419613
F		-1.837444739		-0.564446828		-1.880371287
F		2.733617877		-3.562039571		-0.49620672
F		-1.230623283		-3.613638059		-1.065978274
F		1.894645994		-1.417358821		1.216629223
F		0.837604442		-1.508418458		-1.488429549
F		0.112306338		-1.172317845		3.44376281
F		0.405411118		1.135145131		1.198463686
F		-0.961478091		-1.449333479		0.788323994
