12
-187.24475565
Al		0.344291057		-0.599383618		1.73963634
Al		2.354637981		-1.786422257		-0.511849161
Al		-0.886695912		-1.832586742		-0.998056495
F		3.475127414		-0.49648096		-1.120052033
F		-1.837711395		-0.564438346		-1.879790779
F		2.733311257		-3.562010799		-0.496620256
F		-1.231034303		-3.613676047		-1.065669284
F		1.89444847		-1.417585439		1.217182349
F		0.838156278		-1.50841137		-1.488349157
F		0.112629632		-1.172313693		3.443809908
F		0.405327836		1.135144061		1.198451554
F		-0.961515255		-1.449109875		0.787736678
