12
-187.24475565
Al		0.344059051		-0.599386598		1.739602541
Al		2.354817747		-1.786321318		-0.511518538
Al		-0.886426822		-1.832681916		-0.998321728
F		3.475082575		-0.496487489		-1.120368243
F		-1.837844723		-0.564434105		-1.879500525
F		2.733157947		-3.561996413		-0.496827024
F		-1.231239813		-3.613695041		-1.065514789
F		1.894349708		-1.417698748		1.217458912
F		0.838432196		-1.508407826		-1.488308961
F		0.112791279		-1.172311617		3.443833457
F		0.405286195		1.135143526		1.198445488
F		-0.961533837		-1.448998073		0.78744302
