12
-187.24475565
Al		0.343595039		-0.599392558		1.739534943
Al		2.355177279		-1.78611944		-0.510857292
Al		-0.885888642		-1.832872264		-0.998852194
F		3.474992897		-0.496500547		-1.121000663
F		-1.838111379		-0.564425623		-1.878920017
F		2.732851327		-3.561967641		-0.49724056
F		-1.231650833		-3.613733029		-1.065205799
F		1.894152184		-1.417925366		1.218012038
F		0.838984032		-1.508400738		-1.488228569
F		0.113114573		-1.172307465		3.443880555
F		0.405202913		1.135142456		1.198433356
F		-0.961571001		-1.448774469		0.786855704
