12
-187.24475565
Al		0.343363033		-0.599395538		1.739501144
Al		2.355357045		-1.786018501		-0.510526669
Al		-0.885619552		-1.832967438		-0.999117427
F		3.474948058		-0.496507076		-1.121316873
F		-1.838244707		-0.564421382		-1.878629763
F		2.732698017		-3.561953255		-0.497447328
F		-1.231856343		-3.613752023		-1.065051304
F		1.894053422		-1.418038675		1.218288601
F		0.83925995		-1.508397194		-1.488188373
F		0.11327622		-1.172305389		3.443904104
F		0.405161272		1.135141921		1.19842729
F		-0.961589583		-1.448662667		0.786562046
