12
-187.24475565
Al		0.340346955		-0.599434278		1.739061757
Al		2.357694003		-1.784706294		-0.50622857
Al		-0.882121382		-1.8342047		-1.002565456
F		3.474365151		-0.496591953		-1.125427603
F		-1.839977971		-0.564366249		-1.874856461
F		2.730704987		-3.561766237		-0.500135312
F		-1.234527973		-3.613998945		-1.063042869
F		1.892769516		-1.419511692		1.22188392
F		0.842846884		-1.508351122		-1.487665825
F		0.115377631		-1.172278401		3.444210241
F		0.404619939		1.135134966		1.198348432
F		-0.961831149		-1.447209241		0.782744492
