12
-187.24475565
Al		0.337562883		-0.599470038		1.738656169
Al		2.359851195		-1.783495026		-0.502261094
Al		-0.878892302		-1.835346788		-1.005748252
F		3.473827083		-0.496670301		-1.129222123
F		-1.841577907		-0.564315357		-1.871373413
F		2.728865267		-3.561593605		-0.502616528
F		-1.236994093		-3.614226873		-1.061188929
F		1.891584372		-1.4208714		1.225202676
F		0.8461579		-1.508308594		-1.487183473
F		0.117317395		-1.172253489		3.444492829
F		0.404120247		1.135128546		1.19827564
F		-0.962054133		-1.445867617		0.779220596
