12
-187.24475565
Al		0.337098871		-0.599475998		1.738588571
Al		2.360210727		-1.783293148		-0.501599848
Al		-0.878354122		-1.835537136		-1.006278718
F		3.473737405		-0.496683359		-1.129854543
F		-1.841844563		-0.564306875		-1.870792905
F		2.728558647		-3.561564833		-0.503030064
F		-1.237405113		-3.614264861		-1.060879939
F		1.891386848		-1.421098018		1.225755802
F		0.846709736		-1.508301506		-1.487103081
F		0.117640689		-1.172249337		3.444539927
F		0.404036965		1.135127476		1.198263508
F		-0.962091297		-1.445644013		0.77863328
