12
-187.24475565
Al		0.336866865		-0.599478978		1.738554772
Al		2.360390493		-1.783192209		-0.501269225
Al		-0.878085032		-1.83563231		-1.006543951
F		3.473692566		-0.496689888		-1.130170753
F		-1.841977891		-0.564302634		-1.870502651
F		2.728405337		-3.561550447		-0.503236832
F		-1.237610623		-3.614283855		-1.060725444
F		1.891288086		-1.421211327		1.226032365
F		0.846985654		-1.508297962		-1.487062885
F		0.117802336		-1.172247261		3.444563476
F		0.403995324		1.135126941		1.198257442
F		-0.962109879		-1.445532211		0.778339622
