12
-187.24475565
Al		0.336402853		-0.599484938		1.738487174
Al		2.360750025		-1.782990331		-0.500607979
Al		-0.877546852		-1.835822658		-1.007074417
F		3.473602888		-0.496702946		-1.130803173
F		-1.842244547		-0.564294152		-1.869922143
F		2.728098717		-3.561521675		-0.503650368
F		-1.238021643		-3.614321843		-1.060416454
F		1.891090562		-1.421437945		1.226585491
F		0.84753749		-1.508290874		-1.486982493
F		0.11812563		-1.172243109		3.444610574
F		0.403912042		1.135125871		1.19824531
F		-0.962147043		-1.445308607		0.777752306
