12
-187.24475565
Al		0.336170847		-0.599487918		1.738453375
Al		2.360929791		-1.782889392		-0.500277356
Al		-0.877277762		-1.835917832		-1.00733965
F		3.473558049		-0.496709475		-1.131119383
F		-1.842377875		-0.564289911		-1.869631889
F		2.727945407		-3.561507289		-0.503857136
F		-1.238227153		-3.614340837		-1.060261959
F		1.8909918		-1.421551254		1.226862054
F		0.847813408		-1.50828733		-1.486942297
F		0.118287277		-1.172241033		3.444634123
F		0.403870401		1.135125336		1.198239244
F		-0.962165625		-1.445196805		0.777458648
