12
-187.24475565
Al		0.348235159		-0.599332958		1.740210923
Al		2.351581959		-1.78813822		-0.517469752
Al		-0.891270442		-1.830968784		-0.993547534
F		3.475889677		-0.496369967		-1.114676463
F		-1.835444819		-0.564510443		-1.884725097
F		2.735917527		-3.562255361		-0.4931052
F		-1.227540633		-3.613353149		-1.068295699
F		1.896127424		-1.415659186		1.212480778
F		0.833465672		-1.508471618		-1.489032489
F		0.109881633		-1.172348985		3.443409575
F		0.406035733		1.135153156		1.198554676
F		-0.961199361		-1.451010509		0.792728864
