12
-187.24475565
Al		0.335706835		-0.599493878		1.738385777
Al		2.361289323		-1.782687514		-0.49961611
Al		-0.876739582		-1.83610818		-1.007870116
F		3.473468371		-0.496722533		-1.131751803
F		-1.842644531		-0.564281429		-1.869051381
F		2.727638787		-3.561478517		-0.504270672
F		-1.238638173		-3.614378825		-1.059952969
F		1.890794276		-1.421777872		1.22741518
F		0.848365244		-1.508280242		-1.486861905
F		0.118610571		-1.172236881		3.444681221
F		0.403787119		1.135124266		1.198227112
F		-0.962202789		-1.444973201		0.776871332
