12
-187.24475565
Al		0.335474829		-0.599496858		1.738351978
Al		2.361469089		-1.782586575		-0.499285487
Al		-0.876470492		-1.836203354		-1.008135349
F		3.473423532		-0.496729062		-1.132068013
F		-1.842777859		-0.564277188		-1.868761127
F		2.727485477		-3.561464131		-0.50447744
F		-1.238843683		-3.614397819		-1.059798474
F		1.890695514		-1.421891181		1.227691743
F		0.848641162		-1.508276698		-1.486821709
F		0.118772218		-1.172234805		3.44470477
F		0.403745478		1.135123731		1.198221046
F		-0.962221371		-1.444861399		0.776577674
