12
-187.24475565
Al		0.334314799		-0.599511758		1.738182983
Al		2.362367919		-1.78208188		-0.497632372
Al		-0.875125042		-1.836679224		-1.009461514
F		3.473199337		-0.496761707		-1.133649063
F		-1.843444499		-0.564255983		-1.867309857
F		2.726718927		-3.561392201		-0.50551128
F		-1.239871233		-3.614492789		-1.059025999
F		1.890201704		-1.422457726		1.229074558
F		0.850020752		-1.508258978		-1.486620729
F		0.119580453		-1.172224425		3.444822515
F		0.403537273		1.135121056		1.198190716
F		-0.962314281		-1.444302389		0.775109384
