12
-187.24475565
Al		0.333850787		-0.599517718		1.738115385
Al		2.362727451		-1.781880002		-0.496971126
Al		-0.874586862		-1.836869572		-1.00999198
F		3.473109659		-0.496774765		-1.134281483
F		-1.843711155		-0.564247501		-1.866729349
F		2.726412307		-3.561363429		-0.505924816
F		-1.240282253		-3.614530777		-1.058717009
F		1.89000418		-1.422684344		1.229627684
F		0.850572588		-1.50825189		-1.486540337
F		0.119903747		-1.172220273		3.444869613
F		0.403453991		1.135119986		1.198178584
F		-0.962351445		-1.444078785		0.774522068
