12
-187.24475565
Al		0.348003153		-0.599335938		1.740177124
Al		2.351761725		-1.788037281		-0.517139129
Al		-0.891001352		-1.831063958		-0.993812767
F		3.475844838		-0.496376496		-1.114992673
F		-1.835578147		-0.564506202		-1.884434843
F		2.735764217		-3.562240975		-0.493311968
F		-1.227746143		-3.613372143		-1.068141204
F		1.896028662		-1.415772495		1.212757341
F		0.83374159		-1.508468074		-1.488992293
F		0.11004328		-1.172346909		3.443433124
F		0.405994092		1.135152621		1.19854861
F		-0.961217943		-1.450898707		0.792435206
