12
-187.24475565
Al		0.332922763		-0.599529638		1.737980189
Al		2.363446515		-1.781476246		-0.495648634
Al		-0.873510502		-1.837250268		-1.011052912
F		3.472930303		-0.496800881		-1.135546323
F		-1.844244467		-0.564230537		-1.865568333
F		2.725799067		-3.561305885		-0.506751888
F		-1.241104293		-3.614606753		-1.058099029
F		1.889609132		-1.42313758		1.230733936
F		0.85167626		-1.508237714		-1.486379553
F		0.120550335		-1.172211969		3.444963809
F		0.403287427		1.135117846		1.19815432
F		-0.962425773		-1.443631577		0.773347436
