12
-187.24475565
Al		0.331762733		-0.599544538		1.737811194
Al		2.364345345		-1.780971551		-0.493995519
Al		-0.872165052		-1.837726138		-1.012379077
F		3.472706108		-0.496833526		-1.137127373
F		-1.844911107		-0.564209332		-1.864117063
F		2.725032517		-3.561233955		-0.507785728
F		-1.242131843		-3.614701723		-1.057326554
F		1.889115322		-1.423704125		1.232116751
F		0.85305585		-1.508219994		-1.486178573
F		0.12135857		-1.172201589		3.445081554
F		0.403079222		1.135115171		1.19812399
F		-0.962518683		-1.443072567		0.771879146
