12
-187.24475565
Al		0.331298721		-0.599550498		1.737743596
Al		2.364704877		-1.780769673		-0.493334273
Al		-0.871626872		-1.837916486		-1.012909543
F		3.47261643		-0.496846584		-1.137759793
F		-1.845177763		-0.56420085		-1.863536555
F		2.724725897		-3.561205183		-0.508199264
F		-1.242542863		-3.614739711		-1.057017564
F		1.888917798		-1.423930743		1.232669877
F		0.853607686		-1.508212906		-1.486098181
F		0.121681864		-1.172197437		3.445128652
F		0.40299594		1.135114101		1.198111858
F		-0.962555847		-1.442848963		0.77129183
