12
-187.24475565
Al		0.347771147		-0.599338918		1.740143325
Al		2.351941491		-1.787936342		-0.516808506
Al		-0.890732262		-1.831159132		-0.994078
F		3.475799999		-0.496383025		-1.115308883
F		-1.835711475		-0.564501961		-1.884144589
F		2.735610907		-3.562226589		-0.493518736
F		-1.227951653		-3.613391137		-1.067986709
F		1.8959299		-1.415885804		1.213033904
F		0.834017508		-1.50846453		-1.488952097
F		0.110204927		-1.172344833		3.443456673
F		0.405952451		1.135152086		1.198542544
F		-0.961236525		-1.450786905		0.792141548
