12
-187.24475565
Al		0.330834709		-0.599556458		1.737675998
Al		2.365064409		-1.780567795		-0.492673027
Al		-0.871088692		-1.838106834		-1.013440009
F		3.472526752		-0.496859642		-1.138392213
F		-1.845444419		-0.564192368		-1.862956047
F		2.724419277		-3.561176411		-0.5086128
F		-1.242953883		-3.614777699		-1.056708574
F		1.888720274		-1.424157361		1.233223003
F		0.854159522		-1.508205818		-1.486017789
F		0.122005158		-1.172193285		3.44517575
F		0.402912658		1.135113031		1.198099726
F		-0.962593011		-1.442625359		0.770704514
