12
-187.24475565
Al		0.330370697		-0.599562418		1.7376084
Al		2.365423941		-1.780365917		-0.492011781
Al		-0.870550512		-1.838297182		-1.013970475
F		3.472437074		-0.4968727		-1.139024633
F		-1.845711075		-0.564183886		-1.862375539
F		2.724112657		-3.561147639		-0.509026336
F		-1.243364903		-3.614815687		-1.056399584
F		1.88852275		-1.424383979		1.233776129
F		0.854711358		-1.50819873		-1.485937397
F		0.122328452		-1.172189133		3.445222848
F		0.402829376		1.135111961		1.198087594
F		-0.962630175		-1.442401755		0.770117198
