12
-187.24475565
Al		0.330138691		-0.599565398		1.737574601
Al		2.365603707		-1.780264978		-0.491681158
Al		-0.870281422		-1.838392356		-1.014235708
F		3.472392235		-0.496879229		-1.139340843
F		-1.845844403		-0.564179645		-1.862085285
F		2.723959347		-3.561133253		-0.509233104
F		-1.243570413		-3.614834681		-1.056245089
F		1.888423988		-1.424497288		1.234052692
F		0.854987276		-1.508195186		-1.485897201
F		0.122490099		-1.172187057		3.445246397
F		0.402787735		1.135111426		1.198081528
F		-0.962648757		-1.442289953		0.76982354
