12
-187.24475565
Al		0.329906685		-0.599568378		1.737540802
Al		2.365783473		-1.780164039		-0.491350535
Al		-0.870012332		-1.83848753		-1.014500941
F		3.472347396		-0.496885758		-1.139657053
F		-1.845977731		-0.564175404		-1.861795031
F		2.723806037		-3.561118867		-0.509439872
F		-1.243775923		-3.614853675		-1.056090594
F		1.888325226		-1.424610597		1.234329255
F		0.855263194		-1.508191642		-1.485857005
F		0.122651746		-1.172184981		3.445269946
F		0.402746094		1.135110891		1.198075462
F		-0.962667339		-1.442178151		0.769529882
