12
-187.24475565
Al		0.329674679		-0.599571358		1.737507003
Al		2.365963239		-1.7800631		-0.491019912
Al		-0.869743242		-1.838582704		-1.014766174
F		3.472302557		-0.496892287		-1.139973263
F		-1.846111059		-0.564171163		-1.861504777
F		2.723652727		-3.561104481		-0.50964664
F		-1.243981433		-3.614872669		-1.055936099
F		1.888226464		-1.424723906		1.234605818
F		0.855539112		-1.508188098		-1.485816809
F		0.122813393		-1.172182905		3.445293495
F		0.402704453		1.135110356		1.198069396
F		-0.962685921		-1.442066349		0.769236224
