12
-187.38518821
Al		1.282811472		0.051188352		2.439227655
Al		1.272350098		1.191421132		-0.09627651
Al		-0.322176019		0.834968252		-2.326267989
F		-1.666181126		-0.366015452		-2.219033141
F		2.064378428		-0.355308308		0.759869447
F		0.04851319		1.817796378		-3.793450372
F		-0.355227238		1.931861125		-0.764906997
F		2.587955445		2.420907745		-0.320120704
F		1.264451813		0.042851704		-1.621088481
F		0.440385309		1.538729001		1.618330834
F		2.547585606		0.596923757		3.627797897
F		0.016499941		-1.204687509		2.814544064
