12
-187.38518821
Al		1.282827782		0.051392228		2.438808693
Al		1.271947016		1.191619144		-0.09747592
Al		-0.322455913		0.83489386		-2.326633345
F		-1.665783428		-0.36566248		-2.219059565
F		2.064487904		-0.355598522		0.760227441
F		0.048415936		1.817535862		-3.79305957
F		-0.35487973		1.931794529		-0.764592079
F		2.587962617		2.420904221		-0.320099364
F		1.264603303		0.04301372		-1.620669945
F		0.440298767		1.538667399		1.618792446
F		2.547919322		0.597068115		3.628110705
F		0.016131103		-1.205054659		2.814656362
