12
-187.38518821
Al		1.282876712		0.052003856		2.437551807
Al		1.27073777		1.19221318		-0.10107415
Al		-0.323295595		0.834670684		-2.327729413
F		-1.664590334		-0.364603564		-2.219138837
F		2.064816332		-0.356469164		0.761301423
F		0.048124174		1.816754314		-3.791887164
F		-0.353837206		1.931594741		-0.763647325
F		2.587984133		2.420893649		-0.320035344
F		1.265057773		0.043499768		-1.619414337
F		0.440039141		1.538482593		1.620177282
F		2.54892047		0.597501189		3.629049129
F		0.015024589		-1.206156109		2.814993256
