12
-187.38518821
Al		1.282909332		0.052411608		2.436713883
Al		1.269931606		1.192609204		-0.10347297
Al		-0.323855383		0.8345219		-2.328460125
F		-1.663794938		-0.36389762		-2.219191685
F		2.065035284		-0.357049592		0.762017411
F		0.047929666		1.816233282		-3.79110556
F		-0.35314219		1.931461549		-0.763017489
F		2.587998477		2.420886601		-0.319992664
F		1.265360753		0.0438238		-1.618577265
F		0.439866057		1.538359389		1.621100506
F		2.549587902		0.597789905		3.629674745
F		0.014286913		-1.206890409		2.815217852
