12
-187.38518821
Al		1.282941952		0.05281936		2.435875959
Al		1.269125442		1.193005228		-0.10587179
Al		-0.324415171		0.834373116		-2.329190837
F		-1.662999542		-0.363191676		-2.219244533
F		2.065254236		-0.35763002		0.762733399
F		0.047735158		1.81571225		-3.790323956
F		-0.352447174		1.931328357		-0.762387653
F		2.588012821		2.420879553		-0.319949984
F		1.265663733		0.044147832		-1.617740193
F		0.439692973		1.538236185		1.62202373
F		2.550255334		0.598078621		3.630300361
F		0.013549237		-1.207624709		2.815442448
