12
-187.38518821
Al		1.282974572		0.053227112		2.435038035
Al		1.268319278		1.193401252		-0.10827061
Al		-0.324974959		0.834224332		-2.329921549
F		-1.662204146		-0.362485732		-2.219297381
F		2.065473188		-0.358210448		0.763449387
F		0.04754065		1.815191218		-3.789542352
F		-0.351752158		1.931195165		-0.761757817
F		2.588027165		2.420872505		-0.319907304
F		1.265966713		0.044471864		-1.616903121
F		0.439519889		1.538112981		1.622946954
F		2.550922766		0.598367337		3.630925977
F		0.012811561		-1.208359009		2.815667044
