12
-187.38518821
Al		1.283007192		0.053634864		2.434200111
Al		1.267513114		1.193797276		-0.11066943
Al		-0.325534747		0.834075548		-2.330652261
F		-1.66140875		-0.361779788		-2.219350229
F		2.06569214		-0.358790876		0.764165375
F		0.047346142		1.814670186		-3.788760748
F		-0.351057142		1.931061973		-0.761127981
F		2.588041509		2.420865457		-0.319864624
F		1.266269693		0.044795896		-1.616066049
F		0.439346805		1.537989777		1.623870178
F		2.551590198		0.598656053		3.631551593
F		0.012073885		-1.209093309		2.81589164
