12
-187.38518821
Al		1.283072432		0.054450368		2.432524263
Al		1.265900786		1.194589324		-0.11546707
Al		-0.326654323		0.83377798		-2.332113685
F		-1.659817958		-0.3603679		-2.219455925
F		2.066130044		-0.359951732		0.765597351
F		0.046957126		1.813628122		-3.78719754
F		-0.34966711		1.930795589		-0.759868309
F		2.588070197		2.420851361		-0.319779264
F		1.266875653		0.04544396		-1.614391905
F		0.439000637		1.537743369		1.625716626
F		2.552925062		0.599233485		3.632802825
F		0.010598533		-1.210561909		2.816340832
