12
-187.38518821
Al		1.283096897		0.054756182		2.43189582
Al		1.265296163		1.194886342		-0.117266185
Al		-0.327074164		0.833666392		-2.332661719
F		-1.659221411		-0.359838442		-2.219495561
F		2.066294258		-0.360387053		0.766134342
F		0.046811245		1.813237348		-3.786611337
F		-0.349145848		1.930695695		-0.759395932
F		2.588080955		2.420846075		-0.319747254
F		1.267102888		0.045686984		-1.613764101
F		0.438870824		1.537650966		1.626409044
F		2.553425636		0.599450022		3.633272037
F		0.010045276		-1.211112634		2.816509279
