12
-187.38518821
Al		1.283113207		0.054960058		2.431476858
Al		1.264893081		1.195084354		-0.118465595
Al		-0.327354058		0.833592		-2.333027075
F		-1.658823713		-0.35948547		-2.219521985
F		2.066403734		-0.360677267		0.766492336
F		0.046713991		1.812976832		-3.786220535
F		-0.34879834		1.930629099		-0.759081014
F		2.588088127		2.420842551		-0.319725914
F		1.267254378		0.045849		-1.613345565
F		0.438784282		1.537589364		1.626870656
F		2.553759352		0.59959438		3.633584845
F		0.009676438		-1.211479784		2.816621577
