12
-187.38518821
Al		1.283137672		0.055265872		2.430848415
Al		1.264288458		1.195381372		-0.12026471
Al		-0.327773899		0.833480412		-2.333575109
F		-1.658227166		-0.358956012		-2.219561621
F		2.066567948		-0.361112588		0.767029327
F		0.04656811		1.812586058		-3.785634332
F		-0.348277078		1.930529205		-0.758608637
F		2.588098885		2.420837265		-0.319693904
F		1.267481613		0.046092024		-1.612717761
F		0.438654469		1.537496961		1.627563074
F		2.554259926		0.599810917		3.634054057
F		0.009123181		-1.212030509		2.816790024
