12
-187.38518821
Al		1.283145827		0.05536781		2.430638934
Al		1.264086917		1.195480378		-0.120864415
Al		-0.327913846		0.833443216		-2.333757787
F		-1.658028317		-0.358779526		-2.219574833
F		2.066622686		-0.361257695		0.767208324
F		0.046519483		1.8124558		-3.785438931
F		-0.348103324		1.930495907		-0.758451178
F		2.588102471		2.420835503		-0.319683234
F		1.267557358		0.046173032		-1.612508493
F		0.438611198		1.53746616		1.62779388
F		2.554426784		0.599883096		3.634210461
F		0.008938762		-1.212214084		2.816846173
