12
-187.38518821
Al		1.283162137		0.055571686		2.430219972
Al		1.263683835		1.19567839		-0.122063825
Al		-0.32819374		0.833368824		-2.334123143
F		-1.657630619		-0.358426554		-2.219601257
F		2.066732162		-0.361547909		0.767566318
F		0.046422229		1.812195284		-3.785048129
F		-0.347755816		1.930429311		-0.75813626
F		2.588109643		2.420831979		-0.319661894
F		1.267708848		0.046335048		-1.612089957
F		0.438524656		1.537404558		1.628255492
F		2.5547605		0.600027454		3.634523269
F		0.008569924		-1.212581234		2.816958471
