12
-187.38518821
Al		1.283202912		0.056081376		2.429172567
Al		1.26267613		1.19617342		-0.12506235
Al		-0.328893475		0.833182844		-2.335036533
F		-1.656636374		-0.357544124		-2.219667317
F		2.067005852		-0.362273444		0.768461303
F		0.046179094		1.811543994		-3.784071124
F		-0.346887046		1.930262821		-0.757348965
F		2.588127573		2.420823169		-0.319608544
F		1.268087573		0.046740088		-1.611043617
F		0.438308301		1.537250553		1.629409522
F		2.55559479		0.600388349		3.635305289
F		0.007647829		-1.213499109		2.817239216
