12
-187.38518821
Al		1.283211067		0.056183314		2.428963086
Al		1.262474589		1.196272426		-0.125662055
Al		-0.329033422		0.833145648		-2.335219211
F		-1.656437525		-0.357367638		-2.219680529
F		2.06706059		-0.362418551		0.7686403
F		0.046130467		1.811413736		-3.783875723
F		-0.346713292		1.930229523		-0.757191506
F		2.588131159		2.420821407		-0.319597874
F		1.268163318		0.046821096		-1.610834349
F		0.43826503		1.537219752		1.629640328
F		2.555761648		0.600460528		3.635461693
F		0.00746341		-1.213682684		2.817295365
