12
-187.38518821
Al		1.283219222		0.056285252		2.428753605
Al		1.262273048		1.196371432		-0.12626176
Al		-0.329173369		0.833108452		-2.335401889
F		-1.656238676		-0.357191152		-2.219693741
F		2.067115328		-0.362563658		0.768819297
F		0.04608184		1.811283478		-3.783680322
F		-0.346539538		1.930196225		-0.757034047
F		2.588134745		2.420819645		-0.319587204
F		1.268239063		0.046902104		-1.610625081
F		0.438221759		1.537188951		1.629871134
F		2.555928506		0.600532707		3.635618097
F		0.007278991		-1.213866259		2.817351514
