12
-187.38518821
Al		1.283235532		0.056489128		2.428334643
Al		1.261869966		1.196569444		-0.12746117
Al		-0.329453263		0.83303406		-2.335767245
F		-1.655840978		-0.35683818		-2.219720165
F		2.067224804		-0.362853872		0.769177291
F		0.045984586		1.811022962		-3.78328952
F		-0.34619203		1.930129629		-0.756719129
F		2.588141917		2.420816121		-0.319565864
F		1.268390553		0.04706412		-1.610206545
F		0.438135217		1.537127349		1.630332746
F		2.556262222		0.600677065		3.635930905
F		0.006910153		-1.214233409		2.817463812
