12
-187.38518821
Al		1.283251842		0.056693004		2.427915681
Al		1.261466884		1.196767456		-0.12866058
Al		-0.329733157		0.832959668		-2.336132601
F		-1.65544328		-0.356485208		-2.219746589
F		2.06733428		-0.363144086		0.769535285
F		0.045887332		1.810762446		-3.782898718
F		-0.345844522		1.930063033		-0.756404211
F		2.588149089		2.420812597		-0.319544524
F		1.268542043		0.047226136		-1.609788009
F		0.438048675		1.537065747		1.630794358
F		2.556595938		0.600821423		3.636243713
F		0.006541315		-1.214600559		2.81757611
