12
-187.38518821
Al		1.283268152		0.05689688		2.427496719
Al		1.261063802		1.196965468		-0.12985999
Al		-0.330013051		0.832885276		-2.336497957
F		-1.655045582		-0.356132236		-2.219773013
F		2.067443756		-0.3634343		0.769893279
F		0.045790078		1.81050193		-3.782507916
F		-0.345497014		1.929996437		-0.756089293
F		2.588156261		2.420809073		-0.319523184
F		1.268693533		0.047388152		-1.609369473
F		0.437962133		1.537004145		1.63125597
F		2.556929654		0.600965781		3.636556521
F		0.006172477		-1.214967709		2.817688408
