12
-187.38518821
Al		1.282697302		0.04976122		2.442160389
Al		1.275171672		1.190035048		-0.08788064
Al		-0.320216761		0.835488996		-2.323710497
F		-1.668965012		-0.368486256		-2.218848173
F		2.063612096		-0.35327681		0.757363489
F		0.049193968		1.81961999		-3.796185986
F		-0.357659794		1.932327297		-0.767111423
F		2.587905241		2.420932413		-0.320270084
F		1.263391383		0.041717592		-1.624018233
F		0.440991103		1.539160215		1.61509955
F		2.545249594		0.595913251		3.625608241
F		0.019081807		-1.202117459		2.813757978
