12
-187.38518821
Al		1.283292617		0.057202694		2.426868276
Al		1.260459179		1.197262486		-0.131659105
Al		-0.330432892		0.832773688		-2.337045991
F		-1.654449035		-0.355602778		-2.219812649
F		2.06760797		-0.363869621		0.77043027
F		0.045644197		1.810111156		-3.781921713
F		-0.344975752		1.929896543		-0.755616916
F		2.588167019		2.420803787		-0.319491174
F		1.268920768		0.047631176		-1.608741669
F		0.43783232		1.536911742		1.631948388
F		2.557430228		0.601182318		3.637025733
F		0.00561922		-1.215518434		2.817856855
