12
-187.38518821
Al		1.283300772		0.057304632		2.426658795
Al		1.260257638		1.197361492		-0.13225881
Al		-0.330572839		0.832736492		-2.337228669
F		-1.654250186		-0.355426292		-2.219825861
F		2.067662708		-0.364014728		0.770609267
F		0.04559557		1.809980898		-3.781726312
F		-0.344801998		1.929863245		-0.755459457
F		2.588170605		2.420802025		-0.319480504
F		1.268996513		0.047712184		-1.608532401
F		0.437789049		1.536880941		1.632179194
F		2.557597086		0.601254497		3.637182137
F		0.005434801		-1.215702009		2.817913004
