12
-187.38518821
Al		1.283325237		0.057610446		2.426030352
Al		1.259653015		1.19765851		-0.134057925
Al		-0.33099268		0.832624904		-2.337776703
F		-1.653653639		-0.354896834		-2.219865497
F		2.067826922		-0.364450049		0.771146258
F		0.045449689		1.809590124		-3.781140109
F		-0.344280736		1.929763351		-0.75498708
F		2.588181363		2.420796739		-0.319448494
F		1.269223748		0.047955208		-1.607904597
F		0.437659236		1.536788538		1.632871612
F		2.55809766		0.601471034		3.637651349
F		0.004881544		-1.216252734		2.818081451
