12
-187.38518821
Al		1.283341547		0.057814322		2.42561139
Al		1.259249933		1.197856522		-0.135257335
Al		-0.331272574		0.832550512		-2.338142059
F		-1.653255941		-0.354543862		-2.219891921
F		2.067936398		-0.364740263		0.771504252
F		0.045352435		1.809329608		-3.780749307
F		-0.343933228		1.929696755		-0.754672162
F		2.588188535		2.420793215		-0.319427154
F		1.269375238		0.048117224		-1.607486061
F		0.437572694		1.536726936		1.633333224
F		2.558431376		0.601615392		3.637964157
F		0.004512706		-1.216619884		2.818193749
