12
-187.38518821
Al		1.283382322		0.058324012		2.424563985
Al		1.258242228		1.198351552		-0.13825586
Al		-0.331972309		0.832364532		-2.339055449
F		-1.652261696		-0.353661432		-2.219957981
F		2.068210088		-0.365465798		0.772399237
F		0.0451093		1.808678318		-3.779772302
F		-0.343064458		1.929530265		-0.753884867
F		2.588206465		2.420784405		-0.319373804
F		1.269753963		0.048522264		-1.606439721
F		0.437356339		1.536572931		1.634487254
F		2.559265666		0.601976287		3.638746177
F		0.003590611		-1.217537759		2.818474494
