12
-187.38518821
Al		1.283406787		0.058629826		2.423935542
Al		1.257637605		1.19864857		-0.140054975
Al		-0.33239215		0.832252944		-2.339603483
F		-1.651665149		-0.353131974		-2.219997617
F		2.068374302		-0.365901119		0.772936228
F		0.044963419		1.808287544		-3.779186099
F		-0.342543196		1.929430371		-0.75341249
F		2.588217223		2.420779119		-0.319341794
F		1.269981198		0.048765288		-1.605811917
F		0.437226526		1.536480528		1.635179672
F		2.55976624		0.602192824		3.639215389
F		0.003037354		-1.218088484		2.818642941
