12
-187.38518821
Al		1.282534202		0.04772246		2.446350009
Al		1.279202492		1.188054928		-0.07588654
Al		-0.317417821		0.836232916		-2.320056937
F		-1.672941992		-0.372015976		-2.218583933
F		2.062517336		-0.35037467		0.753783549
F		0.050166508		1.82222515		-3.800094006
F		-0.361134874		1.932993257		-0.770260603
F		2.587833521		2.420967653		-0.320483484
F		1.261876483		0.040097432		-1.628203593
F		0.441856523		1.539776235		1.61048343
F		2.541912434		0.594469671		3.622480161
F		0.022770187		-1.198445959		2.812634998
