12
-187.38518821
Al		1.282477117		0.047008894		2.447816376
Al		1.280613279		1.187361886		-0.071688605
Al		-0.316438192		0.836493288		-2.318778191
F		-1.674333935		-0.373251378		-2.218491449
F		2.06213417		-0.349358921		0.75253057
F		0.050506897		1.823136956		-3.801461813
F		-0.362351152		1.933226343		-0.771362816
F		2.587808419		2.420979987		-0.320558174
F		1.261346268		0.039530376		-1.629668469
F		0.44215942		1.539991842		1.608867788
F		2.540744428		0.593964418		3.621385333
F		0.02406112		-1.197160934		2.812241955
