12
-187.38518821
Al		1.282468962		0.046906956		2.448025857
Al		1.28081482		1.18726288		-0.0710889
Al		-0.316298245		0.836530484		-2.318595513
F		-1.674532784		-0.373427864		-2.218478237
F		2.062079432		-0.349213814		0.752351573
F		0.050555524		1.823267214		-3.801657214
F		-0.362524906		1.933259641		-0.771520275
F		2.587804833		2.420981749		-0.320568844
F		1.261270523		0.039449368		-1.629877737
F		0.442202691		1.540022643		1.608636982
F		2.54057757		0.593892239		3.621228929
F		0.024245539		-1.196977359		2.812185806
