12
-187.38518821
Al		1.282452652		0.04670308		2.448444819
Al		1.281217902		1.187064868		-0.06988949
Al		-0.316018351		0.836604876		-2.318230157
F		-1.674930482		-0.373780836		-2.218451813
F		2.061969956		-0.3489236		0.751993579
F		0.050652778		1.82352773		-3.802048016
F		-0.362872414		1.933326237		-0.771835193
F		2.587797661		2.420985273		-0.320590184
F		1.261119033		0.039287352		-1.630296273
F		0.442289233		1.540084245		1.60817537
F		2.540243854		0.593747881		3.620916121
F		0.024614377		-1.196610209		2.812073508
