12
-187.38518821
Al		1.282371102		0.0456837		2.450539629
Al		1.283233312		1.186074808		-0.06389244
Al		-0.314618881		0.836976836		-2.316403377
F		-1.676918972		-0.375545696		-2.218319693
F		2.061422576		-0.34747253		0.750203609
F		0.051139048		1.82483031		-3.804002026
F		-0.364609954		1.933659217		-0.773409783
F		2.587761801		2.421002893		-0.320696884
F		1.260361583		0.038477272		-1.632388953
F		0.442721943		1.540392255		1.60586731
F		2.538575274		0.593026091		3.619352081
F		0.026458567		-1.194774459		2.811512018
