12
-187.38518821
Al		1.282314017		0.044970134		2.452005996
Al		1.284644099		1.185381766		-0.059694505
Al		-0.313639252		0.837237208		-2.315124631
F		-1.678310915		-0.376781098		-2.218227209
F		2.06103941		-0.346456781		0.74895063
F		0.051479437		1.825742116		-3.805369833
F		-0.365826232		1.933892303		-0.774511996
F		2.587736699		2.421015227		-0.320771574
F		1.259831368		0.037910216		-1.633853829
F		0.44302484		1.540607862		1.604251668
F		2.537407268		0.592520838		3.618257253
F		0.0277495		-1.193489434		2.811118975
