12
-187.38518821
Al		1.282599442		0.048537964		2.444674161
Al		1.277590164		1.188846976		-0.08068418
Al		-0.318537397		0.835935348		-2.321518361
F		-1.6713512		-0.370604088		-2.218689629
F		2.06295524		-0.351535526		0.755215525
F		0.049777492		1.821183086		-3.798530798
F		-0.359744842		1.932726873		-0.769000931
F		2.587862209		2.420953557		-0.320398124
F		1.262482443		0.040745496		-1.626529449
F		0.441510355		1.539529827		1.612329878
F		2.543247298		0.595047103		3.623731393
F		0.021294835		-1.199914559		2.81308419
