12
-187.38518821
Al		1.282289552		0.04466432		2.452634439
Al		1.285248722		1.185084748		-0.05789539
Al		-0.313219411		0.837348796		-2.314576597
F		-1.678907462		-0.377310556		-2.218187573
F		2.060875196		-0.34602146		0.748413639
F		0.051625318		1.82613289		-3.805956036
F		-0.366347494		1.933992197		-0.774984373
F		2.587725941		2.421020513		-0.320803584
F		1.259604133		0.037667192		-1.634481633
F		0.443154653		1.540700265		1.60355925
F		2.536906694		0.592304301		3.617788041
F		0.028302757		-1.192938709		2.810950528
