12
-187.38518821
Al		1.282256932		0.044256568		2.453472363
Al		1.286054886		1.184688724		-0.05549657
Al		-0.312659623		0.83749758		-2.313845885
F		-1.679702858		-0.3780165		-2.218134725
F		2.060656244		-0.345441032		0.747697651
F		0.051819826		1.826653922		-3.80673764
F		-0.36704251		1.934125389		-0.775614209
F		2.587711597		2.421027561		-0.320846264
F		1.259301153		0.03734316		-1.635318705
F		0.443327737		1.540823469		1.602636026
F		2.536239262		0.592015585		3.617162425
F		0.029040433		-1.192204409		2.810725932
