12
-187.38518821
Al		1.282232467		0.043950754		2.454100806
Al		1.286659509		1.184391706		-0.053697455
Al		-0.312239782		0.837609168		-2.313297851
F		-1.680299405		-0.378545958		-2.218095089
F		2.06049203		-0.345005711		0.74716066
F		0.051965707		1.827044696		-3.807323843
F		-0.367563772		1.934225283		-0.776086586
F		2.587700839		2.421032847		-0.320878274
F		1.259073918		0.037100136		-1.635946509
F		0.44345755		1.540915872		1.601943608
F		2.535738688		0.591799048		3.616693213
F		0.02959369		-1.191653684		2.810557485
