12
-187.38518821
Al		1.282216157		0.043746878		2.454519768
Al		1.287062591		1.184193694		-0.052498045
Al		-0.311959888		0.83768356		-2.312932495
F		-1.680697103		-0.37889893		-2.218068665
F		2.060382554		-0.344715497		0.746802666
F		0.052062961		1.827305212		-3.807714645
F		-0.36791128		1.934291879		-0.776401504
F		2.587693667		2.421036371		-0.320899614
F		1.258922428		0.03693812		-1.636365045
F		0.443544092		1.540977474		1.601481996
F		2.535404972		0.59165469		3.616380405
F		0.029962528		-1.191286534		2.810445187
