12
-187.38518821
Al		1.282199847		0.043543002		2.45493873
Al		1.287465673		1.183995682		-0.051298635
Al		-0.311679994		0.837757952		-2.312567139
F		-1.681094801		-0.379251902		-2.218042241
F		2.060273078		-0.344425283		0.746444672
F		0.052160215		1.827565728		-3.808105447
F		-0.368258788		1.934358475		-0.776716422
F		2.587686495		2.421039895		-0.320920954
F		1.258770938		0.036776104		-1.636783581
F		0.443630634		1.541039076		1.601020384
F		2.535071256		0.591510332		3.616067597
F		0.030331366		-1.190919384		2.810332889
