12
-187.38518821
Al		1.282167227		0.04313525		2.455776654
Al		1.288271837		1.183599658		-0.048899815
Al		-0.311120206		0.837906736		-2.311836427
F		-1.681890197		-0.379957846		-2.217989393
F		2.060054126		-0.343844855		0.745728684
F		0.052354723		1.82808676		-3.808887051
F		-0.368953804		1.934491667		-0.777346258
F		2.587672151		2.421046943		-0.320963634
F		1.258467958		0.036452072		-1.637620653
F		0.443803718		1.54116228		1.60009716
F		2.534403824		0.591221616		3.615441981
F		0.031069042		-1.190185084		2.810108293
