12
-187.38518821
Al		1.282142762		0.042829436		2.456405097
Al		1.28887646		1.18330264		-0.0471007
Al		-0.310700365		0.838018324		-2.311288393
F		-1.682486744		-0.380487304		-2.217949757
F		2.059889912		-0.343409534		0.745191693
F		0.052500604		1.828477534		-3.809473254
F		-0.369475066		1.934591561		-0.777818635
F		2.587661393		2.421052229		-0.320995644
F		1.258240723		0.036209048		-1.638248457
F		0.443933531		1.541254683		1.599404742
F		2.53390325		0.591005079		3.614972769
F		0.031622299		-1.189634359		2.809939846
