12
-187.38518821
Al		1.282134607		0.042727498		2.456614578
Al		1.289078001		1.183203634		-0.046500995
Al		-0.310560418		0.83805552		-2.311105715
F		-1.682685593		-0.38066379		-2.217936545
F		2.059835174		-0.343264427		0.745012696
F		0.052549231		1.828607792		-3.809668655
F		-0.36964882		1.934624859		-0.777976094
F		2.587657807		2.421053991		-0.321006314
F		1.258164978		0.03612804		-1.638457725
F		0.443976802		1.541285484		1.599173936
F		2.533736392		0.5909329		3.614816365
F		0.031806718		-1.189450784		2.809883697
