12
-187.38518821
Al		1.282126452		0.04262556		2.456824059
Al		1.289279542		1.183104628		-0.04590129
Al		-0.310420471		0.838092716		-2.310923037
F		-1.682884442		-0.380840276		-2.217923333
F		2.059780436		-0.34311932		0.744833699
F		0.052597858		1.82873805		-3.809864056
F		-0.369822574		1.934658157		-0.778133553
F		2.587654221		2.421055753		-0.321016984
F		1.258089233		0.036047032		-1.638666993
F		0.444020073		1.541316285		1.59894313
F		2.533569534		0.590860721		3.614659961
F		0.031991137		-1.189267209		2.809827548
