12
-187.38518821
Al		1.282110142		0.042421684		2.457243021
Al		1.289682624		1.182906616		-0.04470188
Al		-0.310140577		0.838167108		-2.310557681
F		-1.68328214		-0.381193248		-2.217896909
F		2.05967096		-0.342829106		0.744475705
F		0.052695112		1.828998566		-3.810254858
F		-0.370170082		1.934724753		-0.778448471
F		2.587647049		2.421059277		-0.321038324
F		1.257937743		0.035885016		-1.639085529
F		0.444106615		1.541377887		1.598481518
F		2.533235818		0.590716363		3.614347153
F		0.032359975		-1.188900059		2.80971525
