12
-187.38518821
Al		1.282093832		0.042217808		2.457661983
Al		1.290085706		1.182708604		-0.04350247
Al		-0.309860683		0.8382415		-2.310192325
F		-1.683679838		-0.38154622		-2.217870485
F		2.059561484		-0.342538892		0.744117711
F		0.052792366		1.829259082		-3.81064566
F		-0.37051759		1.934791349		-0.778763389
F		2.587639877		2.421062801		-0.321059664
F		1.257786253		0.035723		-1.639504065
F		0.444193157		1.541439489		1.598019906
F		2.532902102		0.590572005		3.614034345
F		0.032728813		-1.188532909		2.809602952
