12
-187.38518821
Al		1.282061212		0.041810056		2.458499907
Al		1.29089187		1.18231258		-0.04110365
Al		-0.309300895		0.838390284		-2.309461613
F		-1.684475234		-0.382252164		-2.217817637
F		2.059342532		-0.341958464		0.743401723
F		0.052986874		1.829780114		-3.811427264
F		-0.371212606		1.934924541		-0.779393225
F		2.587625533		2.421069849		-0.321102344
F		1.257483273		0.035398968		-1.640341137
F		0.444366241		1.541562693		1.597096682
F		2.53223467		0.590283289		3.613408729
F		0.033466489		-1.187798609		2.809378356
