12
-187.38518821
Al		1.282053057		0.041708118		2.458709388
Al		1.291093411		1.182213574		-0.040503945
Al		-0.309160948		0.83842748		-2.309278935
F		-1.684674083		-0.38242865		-2.217804425
F		2.059287794		-0.341813357		0.743222726
F		0.053035501		1.829910372		-3.811622665
F		-0.37138636		1.934957839		-0.779550684
F		2.587621947		2.421071611		-0.321113014
F		1.257407528		0.03531796		-1.640550405
F		0.444409512		1.541593494		1.596865876
F		2.532067812		0.59021111		3.613252325
F		0.033650908		-1.187615034		2.809322207
