12
-187.38518821
Al		1.282044902		0.04160618		2.458918869
Al		1.291294952		1.182114568		-0.03990424
Al		-0.309021001		0.838464676		-2.309096257
F		-1.684872932		-0.382605136		-2.217791213
F		2.059233056		-0.34166825		0.743043729
F		0.053084128		1.83004063		-3.811818066
F		-0.371560114		1.934991137		-0.779708143
F		2.587618361		2.421073373		-0.321123684
F		1.257331783		0.035236952		-1.640759673
F		0.444452783		1.541624295		1.59663507
F		2.531900954		0.590138931		3.613095921
F		0.033835327		-1.187431459		2.809266058
