12
-187.38518821
Al		1.282004127		0.04109649		2.459966274
Al		1.292302657		1.181619538		-0.036905715
Al		-0.308321266		0.838650656		-2.308182867
F		-1.685867177		-0.383487566		-2.217725153
F		2.058959366		-0.340942715		0.742148744
F		0.053327263		1.83069192		-3.812795071
F		-0.372428884		1.935157627		-0.780495438
F		2.587600431		2.421082183		-0.321177034
F		1.256953058		0.034831912		-1.641806013
F		0.444669138		1.5417783		1.59548104
F		2.531066664		0.589778036		3.612313901
F		0.034757422		-1.186513584		2.808985313
