12
-187.38518821
Al		1.281995972		0.040994552		2.460175755
Al		1.292504198		1.181520532		-0.03630601
Al		-0.308181319		0.838687852		-2.308000189
F		-1.686066026		-0.383664052		-2.217711941
F		2.058904628		-0.340797608		0.741969747
F		0.05337589		1.830822178		-3.812990472
F		-0.372602638		1.935190925		-0.780652897
F		2.587596845		2.421083945		-0.321187704
F		1.256877313		0.034750904		-1.642015281
F		0.444712409		1.541809101		1.595250234
F		2.530899806		0.589705857		3.612157497
F		0.034941841		-1.186330009		2.808929164
