12
-187.38518821
Al		1.281987817		0.040892614		2.460385236
Al		1.292705739		1.181421526		-0.035706305
Al		-0.308041372		0.838725048		-2.307817511
F		-1.686264875		-0.383840538		-2.217698729
F		2.05884989		-0.340652501		0.74179075
F		0.053424517		1.830952436		-3.813185873
F		-0.372776392		1.935224223		-0.780810356
F		2.587593259		2.421085707		-0.321198374
F		1.256801568		0.034669896		-1.642224549
F		0.44475568		1.541839902		1.595019428
F		2.530732948		0.589633678		3.612001093
F		0.03512626		-1.186146434		2.808873015
