12
-187.38518821
Al		1.281979662		0.040790676		2.460594717
Al		1.29290728		1.18132252		-0.0351066
Al		-0.307901425		0.838762244		-2.307634833
F		-1.686463724		-0.384017024		-2.217685517
F		2.058795152		-0.340507394		0.741611753
F		0.053473144		1.831082694		-3.813381274
F		-0.372950146		1.935257521		-0.780967815
F		2.587589673		2.421087469		-0.321209044
F		1.256725823		0.034588888		-1.642433817
F		0.444798951		1.541870703		1.594788622
F		2.53056609		0.589561499		3.611844689
F		0.035310679		-1.185962859		2.808816866
