12
-187.38518821
Al		1.281947042		0.040382924		2.461432641
Al		1.293713444		1.180926496		-0.03270778
Al		-0.307341637		0.838911028		-2.306904121
F		-1.68725912		-0.384722968		-2.217632669
F		2.0585762		-0.339926966		0.740895765
F		0.053667652		1.831603726		-3.814162878
F		-0.373645162		1.935390713		-0.781597651
F		2.587575329		2.421094517		-0.321251724
F		1.256422843		0.034264856		-1.643270889
F		0.444972035		1.541993907		1.593865398
F		2.529898658		0.589272783		3.611219073
F		0.036048355		-1.185228559		2.80859227
