12
-187.38518821
Al		1.281930732		0.040179048		2.461851603
Al		1.294116526		1.180728484		-0.03150837
Al		-0.307061743		0.83898542		-2.306538765
F		-1.687656818		-0.38507594		-2.217606245
F		2.058466724		-0.339636752		0.740537771
F		0.053764906		1.831864242		-3.81455368
F		-0.37399267		1.935457309		-0.781912569
F		2.587568157		2.421098041		-0.321273064
F		1.256271353		0.03410284		-1.643689425
F		0.445058577		1.542055509		1.593403786
F		2.529564942		0.589128425		3.610906265
F		0.036417193		-1.184861409		2.808479972
