12
-187.38518821
Al		1.282558667		0.048028274		2.445721566
Al		1.278597869		1.188351946		-0.077685655
Al		-0.317837662		0.836121328		-2.320604971
F		-1.672345445		-0.371486518		-2.218623569
F		2.06268155		-0.350809991		0.75432054
F		0.050020627		1.821834376		-3.799507803
F		-0.360613612		1.932893363		-0.769788226
F		2.587844279		2.420962367		-0.320451474
F		1.262103718		0.040340456		-1.627575789
F		0.44172671		1.539683832		1.611175848
F		2.542413008		0.594686208		3.622949373
F		0.02221693		-1.198996684		2.812803445
