12
-185.77729729
Al		0.261236672		-2.372654811		-1.838927561
Al		2.01581673		-0.571230456		-0.819687524
Al		-0.340604006		0.275415103		-1.808468383
F		3.568026088		-0.192644816		-0.059405123
F		-0.194173074		-4.137617993		-2.254457236
F		2.196021538		-1.739450976		-2.267638189
F		1.504930495		0.621125439		-2.20388482
F		-1.453119122		1.617579231		-2.165617711
F		-1.195999786		-1.179454652		-0.965261669
F		-0.137141074		-0.912406809		-3.260028481
F		0.536360696		0.376849098		-0.104792702
F		1.146237534		-2.00420981		0.007462127
