12
-185.77729729
Al		0.318405872		-2.194198011		-1.791780761
Al		2.09135433		-0.450097656		-0.770735924
Al		-0.318912806		0.410194303		-1.782775183
F		3.796390888		-0.142156016		0.051843277
F		-0.084808674		-3.715773593		-2.154902836
F		1.816037938		-2.028820176		-2.348815789
F		1.603150495		0.761481039		-2.44613122
F		-1.573588322		1.756468431		-2.205042511
F		-0.982374586		-1.561443452		-1.087214069
F		-0.056000674		-1.327809609		-3.094859281
F		0.405909896		0.459532698		0.148538098
F		0.862439934		-2.26932101		-0.282171073
