12
-185.77729729
Al		0.280293072		-2.313169211		-1.823211961
Al		2.04099593		-0.530852856		-0.803370324
Al		-0.333373606		0.320341503		-1.799903983
F		3.644147688		-0.175815216		-0.022322323
F		-0.157718274		-3.997003193		-2.221272436
F		2.069360338		-1.835907376		-2.294697389
F		1.537670495		0.667910639		-2.28463362
F		-1.493275522		1.663875631		-2.178759311
F		-1.124791386		-1.306784252		-1.005912469
F		-0.110094274		-1.050874409		-3.204972081
F		0.492877096		0.404410298		-0.020349102
F		1.051638334		-2.09258021		-0.089082273
