12
-185.77729729
Al		0.232652072		-2.461883211		-1.862500961
Al		1.97804793		-0.631796856		-0.844163324
Al		-0.351449606		0.208025503		-1.821314983
F		3.453843688		-0.217889216		-0.115029323
F		-0.248855274		-4.348540193		-2.304234436
F		2.386013338		-1.594766376		-2.227049389
F		1.455820495		0.550947639		-2.08276162
F		-1.392884522		1.548134631		-2.145905311
F		-1.302812386		-0.988460252		-0.904285469
F		-0.177711274		-0.704705409		-3.342613081
F		0.601586096		0.335507298		-0.231458102
F		1.288136334		-1.87165421		0.152278727
