12
-185.77729729
Al		0.299349472		-2.253683611		-1.807496361
Al		2.06617513		-0.490475256		-0.787053124
Al		-0.326143206		0.365267903		-1.791339583
F		3.720269288		-0.158985616		0.014760477
F		-0.121263474		-3.856388393		-2.188087636
F		1.942699138		-1.932363776		-2.321756589
F		1.570410495		0.714695839		-2.36538242
F		-1.533431922		1.710172031		-2.191900911
F		-1.053582986		-1.434113852		-1.046563269
F		-0.083047474		-1.189342009		-3.149915681
F		0.449393496		0.431971498		0.064094498
F		0.957039134		-2.18095061		-0.185626673
