12
-185.77729729
Al		0.289821272		-2.283426411		-1.815354161
Al		2.05358553		-0.510664056		-0.795211724
Al		-0.329758406		0.342804703		-1.795621783
F		3.682208488		-0.167400416		-0.003780923
F		-0.139490874		-3.926695793		-2.204680036
F		2.006029738		-1.884135576		-2.308226989
F		1.554040495		0.691303239		-2.32500802
F		-1.513353722		1.687023831		-2.185330111
F		-1.089187186		-1.370449052		-1.026237869
F		-0.096570874		-1.120108209		-3.177443881
F		0.471135296		0.418190898		0.021872698
F		1.004338734		-2.13676541		-0.137354473
