12
-185.77729729
Al		0.323169972		-2.179326611		-1.787851861
Al		2.09764913		-0.440003256		-0.766656624
Al		-0.317105206		0.421425903		-1.780634083
F		3.815421288		-0.137948616		0.061113977
F		-0.075694974		-3.680619893		-2.146606636
F		1.784372638		-2.052934276		-2.355580589
F		1.611335495		0.773177339		-2.46631842
F		-1.583627422		1.768042531		-2.208327911
F		-0.964572486		-1.593275852		-1.097376769
F		-0.049238974		-1.362426509		-3.081095181
F		0.395038996		0.466422998		0.169648998
F		0.838790134		-2.29141361		-0.306307173
12
-185.77729729
Al		0.318405872		-2.194198011		-1.791780761
Al		2.09135433		-0.450097656		-0.770735924
Al		-0.318912806		0.410194303		-1.782775183
F		3.796390888		-0.142156016		0.051843277
F		-0.084808674		-3.715773593		-2.154902836
F		1.816037938		-2.028820176		-2.348815789
F		1.603150495		0.761481039		-2.44613122
F		-1.573588322		1.756468431		-2.205042511
F		-0.982374586		-1.561443452		-1.087214069
F		-0.056000674		-1.327809609		-3.094859281
F		0.405909896		0.459532698		0.148538098
F		0.862439934		-2.26932101		-0.282171073
12
-185.77729729
Al		0.313641772		-2.209069411		-1.795709661
Al		2.08505953		-0.460192056		-0.774815224
Al		-0.320720406		0.398962703		-1.784916283
F		3.777360488		-0.146363416		0.042572577
F		-0.093922374		-3.750927293		-2.163199036
F		1.847703238		-2.004706076		-2.342050989
F		1.594965495		0.749784739		-2.42594402
F		-1.563549222		1.744894331		-2.201757111
F		-1.000176686		-1.529611052		-1.077051369
F		-0.062762374		-1.293192709		-3.108623381
F		0.416780796		0.452642398		0.127427198
F		0.886089734		-2.24722841		-0.258034973
12
-185.77729729
Al		0.308877672		-2.223940811		-1.799638561
Al		2.07876473		-0.470286456		-0.778894524
Al		-0.322528006		0.387731103		-1.787057383
F		3.758330088		-0.150570816		0.033301877
F		-0.103036074		-3.786080993		-2.171495236
F		1.879368538		-1.980591976		-2.335286189
F		1.586780495		0.738088439		-2.40575682
F		-1.553510122		1.733320231		-2.198471711
F		-1.017978786		-1.497778652		-1.066888669
F		-0.069524074		-1.258575809		-3.122387481
F		0.427651696		0.445752098		0.106316298
F		0.909739534		-2.22513581		-0.233898873
12
-185.77729729
Al		0.304113572		-2.238812211		-1.803567461
Al		2.07246993		-0.480380856		-0.782973824
Al		-0.324335606		0.376499503		-1.789198483
F		3.739299688		-0.154778216		0.024031177
F		-0.112149774		-3.821234693		-2.179791436
F		1.911033838		-1.956477876		-2.328521389
F		1.578595495		0.726392139		-2.38556962
F		-1.543471022		1.721746131		-2.195186311
F		-1.035780886		-1.465946252		-1.056725969
F		-0.076285774		-1.223958909		-3.136151581
F		0.438522596		0.438861798		0.085205398
F		0.933389334		-2.20304321		-0.209762773
12
-185.77729729
Al		0.299349472		-2.253683611		-1.807496361
Al		2.06617513		-0.490475256		-0.787053124
Al		-0.326143206		0.365267903		-1.791339583
F		3.720269288		-0.158985616		0.014760477
F		-0.121263474		-3.856388393		-2.188087636
F		1.942699138		-1.932363776		-2.321756589
F		1.570410495		0.714695839		-2.36538242
F		-1.533431922		1.710172031		-2.191900911
F		-1.053582986		-1.434113852		-1.046563269
F		-0.083047474		-1.189342009		-3.149915681
F		0.449393496		0.431971498		0.064094498
F		0.957039134		-2.18095061		-0.185626673
12
-185.77729729
Al		0.294585372		-2.268555011		-1.811425261
Al		2.05988033		-0.500569656		-0.791132424
Al		-0.327950806		0.354036303		-1.793480683
F		3.701238888		-0.163193016		0.005489777
F		-0.130377174		-3.891542093		-2.196383836
F		1.974364438		-1.908249676		-2.314991789
F		1.562225495		0.702999539		-2.34519522
F		-1.523392822		1.698597931		-2.188615511
F		-1.071385086		-1.402281452		-1.036400569
F		-0.089809174		-1.154725109		-3.163679781
F		0.460264396		0.425081198		0.042983598
F		0.980688934		-2.15885801		-0.161490573
12
-185.77729729
Al		0.289821272		-2.283426411		-1.815354161
Al		2.05358553		-0.510664056		-0.795211724
Al		-0.329758406		0.342804703		-1.795621783
F		3.682208488		-0.167400416		-0.003780923
F		-0.139490874		-3.926695793		-2.204680036
F		2.006029738		-1.884135576		-2.308226989
F		1.554040495		0.691303239		-2.32500802
F		-1.513353722		1.687023831		-2.185330111
F		-1.089187186		-1.370449052		-1.026237869
F		-0.096570874		-1.120108209		-3.177443881
F		0.471135296		0.418190898		0.021872698
F		1.004338734		-2.13676541		-0.137354473
12
-185.77729729
Al		0.285057172		-2.298297811		-1.819283061
Al		2.04729073		-0.520758456		-0.799291024
Al		-0.331566006		0.331573103		-1.797762883
F		3.663178088		-0.171607816		-0.013051623
F		-0.148604574		-3.961849493		-2.212976236
F		2.037695038		-1.860021476		-2.301462189
F		1.545855495		0.679606939		-2.30482082
F		-1.503314622		1.675449731		-2.182044711
F		-1.106989286		-1.338616652		-1.016075169
F		-0.103332574		-1.085491309		-3.191207981
F		0.482006196		0.411300598		0.000761798
F		1.027988534		-2.11467281		-0.113218373
12
-185.77729729
Al		0.280293072		-2.313169211		-1.823211961
Al		2.04099593		-0.530852856		-0.803370324
Al		-0.333373606		0.320341503		-1.799903983
F		3.644147688		-0.175815216		-0.022322323
F		-0.157718274		-3.997003193		-2.221272436
F		2.069360338		-1.835907376		-2.294697389
F		1.537670495		0.667910639		-2.28463362
F		-1.493275522		1.663875631		-2.178759311
F		-1.124791386		-1.306784252		-1.005912469
F		-0.110094274		-1.050874409		-3.204972081
F		0.492877096		0.404410298		-0.020349102
F		1.051638334		-2.09258021		-0.089082273
12
-185.77729729
Al		0.275528972		-2.328040611		-1.827140861
Al		2.03470113		-0.540947256		-0.807449624
Al		-0.335181206		0.309109903		-1.802045083
F		3.625117288		-0.180022616		-0.031593023
F		-0.166831974		-4.032156893		-2.229568636
F		2.101025638		-1.811793276		-2.287932589
F		1.529485495		0.656214339		-2.26444642
F		-1.483236422		1.652301531		-2.175473911
F		-1.142593486		-1.274951852		-0.995749769
F		-0.116855974		-1.016257509		-3.218736181
F		0.503747996		0.397519998		-0.041460002
F		1.075288134		-2.07048761		-0.064946173
12
-185.77729729
Al		0.270764872		-2.342912011		-1.831069761
Al		2.02840633		-0.551041656		-0.811528924
Al		-0.336988806		0.297878303		-1.804186183
F		3.606086888		-0.184230016		-0.040863723
F		-0.175945674		-4.067310593		-2.237864836
F		2.132690938		-1.787679176		-2.281167789
F		1.521300495		0.644518039		-2.24425922
F		-1.473197322		1.640727431		-2.172188511
F		-1.160395586		-1.243119452		-0.985587069
F		-0.123617674		-0.981640609		-3.232500281
F		0.514618896		0.390629698		-0.062570902
F		1.098937934		-2.04839501		-0.040810073
12
-185.77729729
Al		0.266000772		-2.357783411		-1.834998661
Al		2.02211153		-0.561136056		-0.815608224
Al		-0.338796406		0.286646703		-1.806327283
F		3.587056488		-0.188437416		-0.050134423
F		-0.185059374		-4.102464293		-2.246161036
F		2.164356238		-1.763565076		-2.274402989
F		1.513115495		0.632821739		-2.22407202
F		-1.463158222		1.629153331		-2.168903111
F		-1.178197686		-1.211287052		-0.975424369
F		-0.130379374		-0.947023709		-3.246264381
F		0.525489796		0.383739398		-0.083681802
F		1.122587734		-2.02630241		-0.016673973
12
-185.77729729
Al		0.261236672		-2.372654811		-1.838927561
Al		2.01581673		-0.571230456		-0.819687524
Al		-0.340604006		0.275415103		-1.808468383
F		3.568026088		-0.192644816		-0.059405123
F		-0.194173074		-4.137617993		-2.254457236
F		2.196021538		-1.739450976		-2.267638189
F		1.504930495		0.621125439		-2.20388482
F		-1.453119122		1.617579231		-2.165617711
F		-1.195999786		-1.179454652		-0.965261669
F		-0.137141074		-0.912406809		-3.260028481
F		0.536360696		0.376849098		-0.104792702
F		1.146237534		-2.00420981		0.007462127
12
-185.77729729
Al		0.256472572		-2.387526211		-1.842856461
Al		2.00952193		-0.581324856		-0.823766824
Al		-0.342411606		0.264183503		-1.810609483
F		3.548995688		-0.196852216		-0.068675823
F		-0.203286774		-4.172771693		-2.262753436
F		2.227686838		-1.715336876		-2.260873389
F		1.496745495		0.609429139		-2.18369762
F		-1.443080022		1.606005131		-2.162332311
F		-1.213801886		-1.147622252		-0.955098969
F		-0.143902774		-0.877789909		-3.273792581
F		0.547231596		0.369958798		-0.125903602
F		1.169887334		-1.98211721		0.031598227
12
-185.77729729
Al		0.251708472		-2.402397611		-1.846785361
Al		2.00322713		-0.591419256		-0.827846124
Al		-0.344219206		0.252951903		-1.812750583
F		3.529965288		-0.201059616		-0.077946523
F		-0.212400474		-4.207925393		-2.271049636
F		2.259352138		-1.691222776		-2.254108589
F		1.488560495		0.597732839		-2.16351042
F		-1.433040922		1.594431031		-2.159046911
F		-1.231603986		-1.115789852		-0.944936269
F		-0.150664474		-0.843173009		-3.287556681
F		0.558102496		0.363068498		-0.147014502
F		1.193537134		-1.96002461		0.055734327
12
-185.77729729
Al		0.246944372		-2.417269011		-1.850714261
Al		1.99693233		-0.601513656		-0.831925424
Al		-0.346026806		0.241720303		-1.814891683
F		3.510934888		-0.205267016		-0.087217223
F		-0.221514174		-4.243079093		-2.279345836
F		2.291017438		-1.667108676		-2.247343789
F		1.480375495		0.586036539		-2.14332322
F		-1.423001822		1.582856931		-2.155761511
F		-1.249406086		-1.083957452		-0.934773569
F		-0.157426174		-0.808556109		-3.301320781
F		0.568973396		0.356178198		-0.168125402
F		1.217186934		-1.93793201		0.079870427
12
-185.77729729
Al		0.242180272		-2.432140411		-1.854643161
Al		1.99063753		-0.611608056		-0.836004724
Al		-0.347834406		0.230488703		-1.817032783
F		3.491904488		-0.209474416		-0.096487923
F		-0.230627874		-4.278232793		-2.287642036
F		2.322682738		-1.642994576		-2.240578989
F		1.472190495		0.574340239		-2.12313602
F		-1.412962722		1.571282831		-2.152476111
F		-1.267208186		-1.052125052		-0.924610869
F		-0.164187874		-0.773939209		-3.315084881
F		0.579844296		0.349287898		-0.189236302
F		1.240836734		-1.91583941		0.104006527
12
-185.77729729
Al		0.237416172		-2.447011811		-1.858572061
Al		1.98434273		-0.621702456		-0.840084024
Al		-0.349642006		0.219257103		-1.819173883
F		3.472874088		-0.213681816		-0.105758623
F		-0.239741574		-4.313386493		-2.295938236
F		2.354348038		-1.618880476		-2.233814189
F		1.464005495		0.562643939		-2.10294882
F		-1.402923622		1.559708731		-2.149190711
F		-1.285010286		-1.020292652		-0.914448169
F		-0.170949574		-0.739322309		-3.328848981
F		0.590715196		0.342397598		-0.210347202
F		1.264486534		-1.89374681		0.128142627
12
-185.77729729
Al		0.232652072		-2.461883211		-1.862500961
Al		1.97804793		-0.631796856		-0.844163324
Al		-0.351449606		0.208025503		-1.821314983
F		3.453843688		-0.217889216		-0.115029323
F		-0.248855274		-4.348540193		-2.304234436
F		2.386013338		-1.594766376		-2.227049389
F		1.455820495		0.550947639		-2.08276162
F		-1.392884522		1.548134631		-2.145905311
F		-1.302812386		-0.988460252		-0.904285469
F		-0.177711274		-0.704705409		-3.342613081
F		0.601586096		0.335507298		-0.231458102
F		1.288136334		-1.87165421		0.152278727
