      12
SCF Done            -177.63650714
Al            1.281928680         0.045498317         2.450111073
Al            1.164940000         1.084171000        -0.062842000
Al           -0.323695562         0.834253250        -2.327563773
F            -1.674836172        -0.369816453        -2.227017606
F             1.872784253         0.028670047         0.583411452
F             0.044226139         1.816059290        -3.797727333
F             0.038680190         1.746591753        -0.633374049
F             2.325727557         2.174671512        -0.272913443
F             1.248870239         0.335163405        -1.273094254
F             0.662592117         1.440097429         1.223132039
F             2.539157969         0.590438076         3.626165437
F             0.022011675        -1.203384352         2.822095071
