12
-186.39349496
Al		-0.077257783		1.639764313		2.149563501
Al		2.526086514		2.606919489		1.767160551
Al		1.356851832		2.663716617		-0.646482352
F		1.001406537		3.091607477		2.835023402
F		-1.576963827		2.683778045		2.176526741
F		-0.492409968		-0.024805613		2.752925475
F		1.80492977		0.868723638		1.935322884
F		2.963984671		1.858011113		-0.074283994
F		1.088359599		3.035038567		-2.39482119
F		1.746783805		4.014629502		0.630732575
F		4.112336026		3.126199066		2.460544991
F		-0.007443694		1.802056771		0.217380412
