12
-186.39349496
Al		-0.077200253		1.639672744		2.149047672
Al		2.526152552		2.606899713		1.767291367
Al		1.3567153		2.66364862		-0.64643187
F		1.001423006		3.091482108		2.834977451
F		-1.576840731		2.683690638		2.176547246
F		-0.492346195		-0.02466119		2.75294177
F		1.804522717		0.868762733		1.935440213
F		2.963885337		1.858107773		-0.074421592
F		1.088428489		3.035059261		-2.394752588
F		1.746693706		4.014589767		0.630521603
F		4.112470304		3.126265565		2.460620792
F		-0.007238267		1.802155622		0.217875041
