12
-186.39349496
Al		-0.077085193		1.639489606		2.148016014
Al		2.526284628		2.606860161		1.767552999
Al		1.356442236		2.663512626		-0.646330906
F		1.001455944		3.09123137		2.834885549
F		-1.576594539		2.683515824		2.176588256
F		-0.492218649		-0.024372344		2.75297436
F		1.803708611		0.868840923		1.935674871
F		2.963686669		1.858301093		-0.074696788
F		1.088566269		3.035100649		-2.394615384
F		1.746513508		4.014510297		0.630099659
F		4.11273886		3.126398563		2.460772394
F		-0.006827413		1.802353324		0.218864299
