12
-186.39349496
Al		-0.077027663		1.639398037		2.147500185
Al		2.526350666		2.606840385		1.767683815
Al		1.356305704		2.663444629		-0.646280424
F		1.001472413		3.091106001		2.834839598
F		-1.576471443		2.683428417		2.176608761
F		-0.492154876		-0.024227921		2.752990655
F		1.803301558		0.868880018		1.9357922
F		2.963587335		1.858397753		-0.074834386
F		1.088635159		3.035121343		-2.394546782
F		1.746423409		4.014470562		0.629888687
F		4.112873138		3.126465062		2.460848195
F		-0.006621986		1.802452175		0.219358928
