12
-186.39349496
Al		-0.076970133		1.639306468		2.146984356
Al		2.526416704		2.606820609		1.767814631
Al		1.356169172		2.663376632		-0.646229942
F		1.001488882		3.090980632		2.834793647
F		-1.576348347		2.68334101		2.176629266
F		-0.492091103		-0.024083498		2.75300695
F		1.802894505		0.868919113		1.935909529
F		2.963488001		1.858494413		-0.074971984
F		1.088704049		3.035142037		-2.39447818
F		1.74633331		4.014430827		0.629677715
F		4.113007416		3.126531561		2.460923996
F		-0.006416559		1.802551026		0.219853557
