12
-186.39349496
Al		-0.076797543		1.639031761		2.145436869
Al		2.526614818		2.606761281		1.768207079
Al		1.355759576		2.663172641		-0.646078496
F		1.001538289		3.090604525		2.834655794
F		-1.575979059		2.683078789		2.176690781
F		-0.491899784		-0.023650229		2.753055835
F		1.801673346		0.869036398		1.936261516
F		2.963189999		1.858784393		-0.075384778
F		1.088910719		3.035204119		-2.394272374
F		1.746063013		4.014311622		0.629044799
F		4.11341025		3.126731058		2.461151399
F		-0.005800278		1.802847579		0.221337444
