12
-186.39349496
Al		-0.076682483		1.638848623		2.144405211
Al		2.526746894		2.606721729		1.768468711
Al		1.355486512		2.663036647		-0.645977532
F		1.001571227		3.090353787		2.834563892
F		-1.575732867		2.682903975		2.176731791
F		-0.491772238		-0.023361383		2.753088425
F		1.80085924		0.869114588		1.936496174
F		2.962991331		1.858977713		-0.075659974
F		1.089048499		3.035245507		-2.39413517
F		1.745882815		4.014232152		0.628622855
F		4.113678806		3.126864056		2.461303001
F		-0.005389424		1.803045281		0.222326702
