12
-186.39349496
Al		-0.076509893		1.638573916		2.142857724
Al		2.526945008		2.606662401		1.768861159
Al		1.355076916		2.662832656		-0.645826086
F		1.001620634		3.08997768		2.834426039
F		-1.575363579		2.682641754		2.176793306
F		-0.491580919		-0.022928114		2.75313731
F		1.799638081		0.869231873		1.936848161
F		2.962693329		1.859267693		-0.076072768
F		1.089255169		3.035307589		-2.393929364
F		1.745612518		4.014112947		0.627989939
F		4.11408164		3.127063553		2.461530404
F		-0.004773143		1.803341834		0.223810589
