12
-186.39349496
Al		-0.076337303		1.638299209		2.141310237
Al		2.527143122		2.606603073		1.769253607
Al		1.35466732		2.662628665		-0.64567464
F		1.001670041		3.089601573		2.834288186
F		-1.574994291		2.682379533		2.176854821
F		-0.4913896		-0.022494845		2.753186195
F		1.798416922		0.869349158		1.937200148
F		2.962395327		1.859557673		-0.076485562
F		1.089461839		3.035369671		-2.393723558
F		1.745342221		4.013993742		0.627357023
F		4.114484474		3.12726305		2.461757807
F		-0.004156862		1.803638387		0.225294476
