12
-186.39349496
Al		-0.077718023		1.640496865		2.153690133
Al		2.52555821		2.607077697		1.766114023
Al		1.357944088		2.664260593		-0.646886208
F		1.001274785		3.092610429		2.83539101
F		-1.577948595		2.684477301		2.176362701
F		-0.492920152		-0.025960997		2.752795115
F		1.808186194		0.868410878		1.934384252
F		2.964779343		1.857237833		-0.07318321
F		1.087808479		3.034873015		-2.395370006
F		1.747504597		4.014947382		0.632420351
F		4.111261802		3.125667074		2.459938583
F		-0.00908711		1.801265963		0.21342338
