12
-186.39349496
Al		-0.075992123		1.637749795		2.138215263
Al		2.52753935		2.606484417		1.770038503
Al		1.353848128		2.662220683		-0.645371748
F		1.001768855		3.088849359		2.83401248
F		-1.574255715		2.681855091		2.176977851
F		-0.491006962		-0.021628307		2.753283965
F		1.795974604		0.869583728		1.937904122
F		2.961799323		1.860137633		-0.07731115
F		1.089875179		3.035493835		-2.393311946
F		1.744801627		4.013755332		0.626091191
F		4.115290142		3.127662044		2.462212613
F		-0.0029243		1.804231493		0.22826225
