12
-186.39349496
Al		-0.075934593		1.637658226		2.137699434
Al		2.527605388		2.606464641		1.770169319
Al		1.353711596		2.662152686		-0.645321266
F		1.001785324		3.08872399		2.833966529
F		-1.574132619		2.681767684		2.176998356
F		-0.490943189		-0.021483884		2.75330026
F		1.795567551		0.869622823		1.938021451
F		2.961699989		1.860234293		-0.077448748
F		1.089944069		3.035514529		-2.393243344
F		1.744711528		4.013715597		0.625880219
F		4.11542442		3.127728543		2.462288414
F		-0.002718873		1.804330344		0.228756879
