12
-186.39349496
Al		-0.075877063		1.637566657		2.137183605
Al		2.527671426		2.606444865		1.770300135
Al		1.353575064		2.662084689		-0.645270784
F		1.001801793		3.088598621		2.833920578
F		-1.574009523		2.681680277		2.177018861
F		-0.490879416		-0.021339461		2.753316555
F		1.795160498		0.869661918		1.93813878
F		2.961600655		1.860330953		-0.077586346
F		1.090012959		3.035535223		-2.393174742
F		1.744621429		4.013675862		0.625669247
F		4.115558698		3.127795042		2.462364215
F		-0.002513446		1.804429195		0.229251508
