12
-186.39349496
Al		-0.075819533		1.637475088		2.136667776
Al		2.527737464		2.606425089		1.770430951
Al		1.353438532		2.662016692		-0.645220302
F		1.001818262		3.088473252		2.833874627
F		-1.573886427		2.68159287		2.177039366
F		-0.490815643		-0.021195038		2.75333285
F		1.794753445		0.869701013		1.938256109
F		2.961501321		1.860427613		-0.077723944
F		1.090081849		3.035555917		-2.39310614
F		1.74453133		4.013636127		0.625458275
F		4.115692976		3.127861541		2.462440016
F		-0.002308019		1.804528046		0.229746137
