12
-186.39349496
Al		-0.077660493		1.640405296		2.153174304
Al		2.525624248		2.607057921		1.766244839
Al		1.357807556		2.664192596		-0.646835726
F		1.001291254		3.09248506		2.835345059
F		-1.577825499		2.684389894		2.176383206
F		-0.492856379		-0.025816574		2.75281141
F		1.807779141		0.868449973		1.934501581
F		2.964680009		1.857334493		-0.073320808
F		1.087877369		3.034893709		-2.395301404
F		1.747414498		4.014907647		0.632209379
F		4.11139608		3.125733573		2.460014384
F		-0.008881683		1.801364814		0.213918009
