12
-186.39349496
Al		-0.075531883		1.637017243		2.134088631
Al		2.528067654		2.606326209		1.771085031
Al		1.352755872		2.661676707		-0.644967892
F		1.001900607		3.087846407		2.833644872
F		-1.573270947		2.681155835		2.177141891
F		-0.490496778		-0.020472923		2.753414325
F		1.79271818		0.869896488		1.938842754
F		2.961004651		1.860910913		-0.078411934
F		1.090426299		3.035659387		-2.39276313
F		1.744080835		4.013437452		0.624403415
F		4.116364366		3.128194036		2.462819021
F		-0.001280884		1.805022301		0.232219282
