12
-186.39349496
Al		-0.075301763		1.636650967		2.132025315
Al		2.528331806		2.606247105		1.771608295
Al		1.352209744		2.661404719		-0.644765964
F		1.001966483		3.087344931		2.833461068
F		-1.572778563		2.680806207		2.177223911
F		-0.490241686		-0.019895231		2.753479505
F		1.791089968		0.870052868		1.93931207
F		2.960607315		1.861297553		-0.078962326
F		1.090701859		3.035742163		-2.392488722
F		1.743720439		4.013278512		0.623559527
F		4.116901478		3.128460032		2.463122225
F		-0.000459176		1.805417705		0.234197798
