12
-186.39349496
Al		-0.075129173		1.63637626		2.130477828
Al		2.52852992		2.606187777		1.772000743
Al		1.351800148		2.661200728		-0.644614518
F		1.00201589		3.086968824		2.833323215
F		-1.572409275		2.680543986		2.177285426
F		-0.490050367		-0.019461962		2.75352839
F		1.789868809		0.870170153		1.939664057
F		2.960309313		1.861587533		-0.07937512
F		1.090908529		3.035804245		-2.392282916
F		1.743450142		4.013159307		0.622926611
F		4.117304312		3.128659529		2.463349628
F		0.000157105		1.805714258		0.235681685
