12
-186.39349496
Al		-0.074093633		1.634728018		2.121192906
Al		2.529718604		2.605831809		1.774355431
Al		1.349342572		2.659976782		-0.643705842
F		1.002312332		3.084712182		2.832496097
F		-1.570193547		2.67897066		2.177654516
F		-0.488902453		-0.016862348		2.7538217
F		1.782541855		0.870873863		1.941775979
F		2.958521301		1.863327413		-0.081851884
F		1.092148549		3.036176737		-2.39104808
F		1.74182836		4.012444077		0.619129115
F		4.119721316		3.129856511		2.464714046
F		0.003854791		1.807493576		0.244585007
