12
-186.39349496
Al		-0.074036103		1.634636449		2.120677077
Al		2.529784642		2.605812033		1.774486247
Al		1.34920604		2.659908785		-0.64365536
F		1.002328801		3.084586813		2.832450146
F		-1.570070451		2.678883253		2.177675021
F		-0.48883868		-0.016717925		2.753837995
F		1.782134802		0.870912958		1.941893308
F		2.958421967		1.863424073		-0.081989482
F		1.092217439		3.036197431		-2.390979478
F		1.741738261		4.012404342		0.618918143
F		4.119855594		3.12992301		2.464789847
F		0.004060218		1.807592427		0.245079636
