12
-186.39349496
Al		-0.077487903		1.640130589		2.151626817
Al		2.525822362		2.606998593		1.766637287
Al		1.35739796		2.663988605		-0.64668428
F		1.001340661		3.092108953		2.835207206
F		-1.577456211		2.684127673		2.176444721
F		-0.49266506		-0.025383305		2.752860295
F		1.806557982		0.868567258		1.934853568
F		2.964382007		1.857624473		-0.073733602
F		1.088084039		3.034955791		-2.395095598
F		1.747144201		4.014788442		0.631576463
F		4.111798914		3.12593307		2.460241787
F		-0.008265402		1.801661367		0.215401896
