12
-186.39349496
Al		-0.073633393		1.633995466		2.117066274
Al		2.530246908		2.605673601		1.775401959
Al		1.348250316		2.659432806		-0.643301986
F		1.002444084		3.08370923		2.832128489
F		-1.569208779		2.678271404		2.177818556
F		-0.488392269		-0.015706964		2.75395206
F		1.779285431		0.871186623		1.942714611
F		2.957726629		1.864100693		-0.082952668
F		1.092699669		3.036342289		-2.390499264
F		1.741107568		4.012126197		0.617441339
F		4.12079554		3.130388503		2.465320454
F		0.005498207		1.808284384		0.248542039
