12
-186.39349496
Al		-0.073518333		1.633812328		2.116034616
Al		2.530378984		2.605634049		1.775663591
Al		1.347977252		2.659296812		-0.643201022
F		1.002477022		3.083458492		2.832036587
F		-1.568962587		2.67809659		2.177859566
F		-0.488264723		-0.015418118		2.75398465
F		1.778471325		0.871264813		1.942949269
F		2.957527961		1.864294013		-0.083227864
F		1.092837449		3.036383677		-2.39036206
F		1.74092737		4.012046727		0.617019395
F		4.121064096		3.130521501		2.465472056
F		0.005909061		1.808482086		0.249531297
