12
-186.39349496
Al		-0.073345743		1.633537621		2.114487129
Al		2.530577098		2.605574721		1.776056039
Al		1.347567656		2.659092821		-0.643049576
F		1.002526429		3.083082385		2.831898734
F		-1.568593299		2.677834369		2.177921081
F		-0.488073404		-0.014984849		2.754033535
F		1.777250166		0.871382098		1.943301256
F		2.957229959		1.864583993		-0.083640658
F		1.093044119		3.036445759		-2.390156254
F		1.740657073		4.011927522		0.616386479
F		4.12146693		3.130720998		2.465699459
F		0.006525342		1.808778639		0.251015184
