12
-186.39349496
Al		-0.073058093		1.633079776		2.111907984
Al		2.530907288		2.605475841		1.776710119
Al		1.346884996		2.658752836		-0.642797166
F		1.002608774		3.08245554		2.831668979
F		-1.567977819		2.677397334		2.178023606
F		-0.487754539		-0.014262734		2.75411501
F		1.775214901		0.871577573		1.943887901
F		2.956733289		1.865067293		-0.084328648
F		1.093388569		3.036549229		-2.389813244
F		1.740206578		4.011728847		0.615331619
F		4.12213832		3.131053493		2.466078464
F		0.007552477		1.809272894		0.253488329
