12
-186.39349496
Al		-0.072943033		1.632896638		2.110876326
Al		2.531039364		2.605436289		1.776971751
Al		1.346611932		2.658616842		-0.642696202
F		1.002641712		3.082204802		2.831577077
F		-1.567731627		2.67722252		2.178064616
F		-0.487626993		-0.013973888		2.7541476
F		1.774400795		0.871655763		1.944122559
F		2.956534621		1.865260613		-0.084603844
F		1.093526349		3.036590617		-2.38967604
F		1.74002638		4.011649377		0.614909675
F		4.122406876		3.131186491		2.466230066
F		0.007963331		1.809470596		0.254477587
