12
-186.39349496
Al		-0.072885503		1.632805069		2.110360497
Al		2.531105402		2.605416513		1.777102567
Al		1.3464754		2.658548845		-0.64264572
F		1.002658181		3.082079433		2.831531126
F		-1.567608531		2.677135113		2.178085121
F		-0.48756322		-0.013829465		2.754163895
F		1.773993742		0.871694858		1.944239888
F		2.956435287		1.865357273		-0.084741442
F		1.093595239		3.036611311		-2.389607438
F		1.739936281		4.011609642		0.614698703
F		4.122541154		3.13125299		2.466305867
F		0.008168758		1.809569447		0.254972216
