12
-186.39349496
Al		-0.072827973		1.6327135		2.109844668
Al		2.53117144		2.605396737		1.777233383
Al		1.346338868		2.658480848		-0.642595238
F		1.00267465		3.081954064		2.831485175
F		-1.567485435		2.677047706		2.178105626
F		-0.487499447		-0.013685042		2.75418019
F		1.773586689		0.871733953		1.944357217
F		2.956335953		1.865453933		-0.08487904
F		1.093664129		3.036632005		-2.389538836
F		1.739846182		4.011569907		0.614487731
F		4.122675432		3.131319489		2.466381668
F		0.008374185		1.809668298		0.255466845
