12
-186.39349496
Al		-0.072712913		1.632530362		2.10881301
Al		2.531303516		2.605357185		1.777495015
Al		1.346065804		2.658344854		-0.642494274
F		1.002707588		3.081703326		2.831393273
F		-1.567239243		2.676872892		2.178146636
F		-0.487371901		-0.013396196		2.75421278
F		1.772772583		0.871812143		1.944591875
F		2.956137285		1.865647253		-0.085154236
F		1.093801909		3.036673393		-2.389401632
F		1.739665984		4.011490437		0.614065787
F		4.122943988		3.131452487		2.46653327
F		0.008785039		1.809866		0.256456103
