12
-186.39349496
Al		-0.072655383		1.632438793		2.108297181
Al		2.531369554		2.605337409		1.777625831
Al		1.345929272		2.658276857		-0.642443792
F		1.002724057		3.081577957		2.831347322
F		-1.567116147		2.676785485		2.178167141
F		-0.487308128		-0.013251773		2.754229075
F		1.77236553		0.871851238		1.944709204
F		2.956037951		1.865743913		-0.085291834
F		1.093870799		3.036694087		-2.38933303
F		1.739575885		4.011450702		0.613854815
F		4.123078266		3.131518986		2.466609071
F		0.008990466		1.809964851		0.256950732
