12
-186.39349496
Al		-0.072540323		1.632255655		2.107265523
Al		2.53150163		2.605297857		1.777887463
Al		1.345656208		2.658140863		-0.642342828
F		1.002756995		3.081327219		2.83125542
F		-1.566869955		2.676610671		2.178208151
F		-0.487180582		-0.012962927		2.754261665
F		1.771551424		0.871929428		1.944943862
F		2.955839283		1.865937233		-0.08556703
F		1.094008579		3.036735475		-2.389195826
F		1.739395687		4.011371232		0.613432871
F		4.123346822		3.131651984		2.466760673
F		0.00940132		1.810162553		0.25793999
