12
-186.39349496
Al		-0.077948143		1.640863141		2.155753449
Al		2.525294058		2.607156801		1.765590759
Al		1.358490216		2.664532581		-0.647088136
F		1.001208909		3.093111905		2.835574814
F		-1.578440979		2.684826929		2.176280681
F		-0.493175244		-0.026538689		2.752729935
F		1.809814406		0.868254498		1.933914936
F		2.965176679		1.856851193		-0.072632818
F		1.087532919		3.034790239		-2.395644414
F		1.747864993		4.015106322		0.633264239
F		4.11072469		3.125401078		2.459635379
F		-0.009908818		1.800870559		0.211444864
