12
-186.39349496
Al		-0.078926153		1.642419814		2.164522542
Al		2.524171412		2.607492993		1.763366887
Al		1.36081126		2.66568853		-0.64794633
F		1.000928936		3.095243178		2.836355981
F		-1.580533611		2.686312848		2.175932096
F		-0.494259385		-0.02899388		2.75245292
F		1.816734307		0.867589883		1.931920343
F		2.966865357		1.855207973		-0.070293652
F		1.086361789		3.034438441		-2.396810648
F		1.749396676		4.015781817		0.636850763
F		4.108441964		3.124270595		2.458346762
F		-0.013401077		1.799190092		0.203036171
