12
-186.39349496
Al		-0.078983683		1.642511383		2.165038371
Al		2.524105374		2.607512769		1.763236071
Al		1.360947792		2.665756527		-0.647996812
F		1.000912467		3.095368547		2.836401932
F		-1.580656707		2.686400255		2.175911591
F		-0.494323158		-0.029138303		2.752436625
F		1.81714136		0.867550788		1.931803014
F		2.966964691		1.855111313		-0.070156054
F		1.086292899		3.034417747		-2.39687925
F		1.749486775		4.015821552		0.637061735
F		4.108307686		3.124204096		2.458270961
F		-0.013606504		1.799091241		0.202541542
