12
-186.39349496
Al		-0.079041213		1.642602952		2.1655542
Al		2.524039336		2.607532545		1.763105255
Al		1.361084324		2.665824524		-0.648047294
F		1.000895998		3.095493916		2.836447883
F		-1.580779803		2.686487662		2.175891086
F		-0.494386931		-0.029282726		2.75242033
F		1.817548413		0.867511693		1.931685685
F		2.967064025		1.855014653		-0.070018456
F		1.086224009		3.034397053		-2.396947852
F		1.749576874		4.015861287		0.637272707
F		4.108173408		3.124137597		2.45819516
F		-0.013811931		1.79899239		0.202046913
