12
-186.39349496
Al		-0.079098743		1.642694521		2.166070029
Al		2.523973298		2.607552321		1.762974439
Al		1.361220856		2.665892521		-0.648097776
F		1.000879529		3.095619285		2.836493834
F		-1.580902899		2.686575069		2.175870581
F		-0.494450704		-0.029427149		2.752404035
F		1.817955466		0.867472598		1.931568356
F		2.967163359		1.854917993		-0.069880858
F		1.086155119		3.034376359		-2.397016454
F		1.749666973		4.015901022		0.637483679
F		4.10803913		3.124071098		2.458119359
F		-0.014017358		1.798893539		0.201552284
