12
-186.39349496
Al		-0.079213803		1.642877659		2.167101687
Al		2.523841222		2.607591873		1.762712807
Al		1.36149392		2.666028515		-0.64819874
F		1.000846591		3.095870023		2.836585736
F		-1.581149091		2.686749883		2.175829571
F		-0.49457825		-0.029715995		2.752371445
F		1.818769572		0.867394408		1.931333698
F		2.967362027		1.854724673		-0.069605662
F		1.086017339		3.034334971		-2.397153658
F		1.749847171		4.015980492		0.637905623
F		4.107770574		3.1239381		2.457967757
F		-0.014428212		1.798695837		0.200563026
