12
-186.39349496
Al		-0.079328863		1.643060797		2.168133345
Al		2.523709146		2.607631425		1.762451175
Al		1.361766984		2.666164509		-0.648299704
F		1.000813653		3.096120761		2.836677638
F		-1.581395283		2.686924697		2.175788561
F		-0.494705796		-0.030004841		2.752338855
F		1.819583678		0.867316218		1.93109904
F		2.967560695		1.854531353		-0.069330466
F		1.085879559		3.034293583		-2.397290862
F		1.750027369		4.016059962		0.638327567
F		4.107502018		3.123805102		2.457816155
F		-0.014839066		1.798498135		0.199573768
