12
-186.39349496
Al		-0.079386393		1.643152366		2.168649174
Al		2.523643108		2.607651201		1.762320359
Al		1.361903516		2.666232506		-0.648350186
F		1.000797184		3.09624613		2.836723589
F		-1.581518379		2.687012104		2.175768056
F		-0.494769569		-0.030149264		2.75232256
F		1.819990731		0.867277123		1.930981711
F		2.967660029		1.854434693		-0.069192868
F		1.085810669		3.034272889		-2.397359464
F		1.750117468		4.016099697		0.638538539
F		4.10736774		3.123738603		2.457740354
F		-0.015044493		1.798399284		0.199079139
