12
-186.39349496
Al		-0.079443923		1.643243935		2.169165003
Al		2.52357707		2.607670977		1.762189543
Al		1.362040048		2.666300503		-0.648400668
F		1.000780715		3.096371499		2.83676954
F		-1.581641475		2.687099511		2.175747551
F		-0.494833342		-0.030293687		2.752306265
F		1.820397784		0.867238028		1.930864382
F		2.967759363		1.854338033		-0.06905527
F		1.085741779		3.034252195		-2.397428066
F		1.750207567		4.016139432		0.638749511
F		4.107233462		3.123672104		2.457664553
F		-0.01524992		1.798300433		0.19858451
