12
-186.39349496
Al		-0.078063203		1.641046279		2.156785107
Al		2.525161982		2.607196353		1.765329127
Al		1.35876328		2.664668575		-0.6471891
F		1.001175971		3.093362643		2.835666716
F		-1.578687171		2.685001743		2.176239671
F		-0.49330279		-0.026827535		2.752697345
F		1.810628512		0.868176308		1.933680278
F		2.965375347		1.856657873		-0.072357622
F		1.087395139		3.034748851		-2.395781618
F		1.748045191		4.015185792		0.633686183
F		4.110456134		3.12526808		2.459483777
F		-0.010319672		1.800672857		0.210455606
