12
-186.39349496
Al		-0.079616513		1.643518642		2.17071249
Al		2.523378956		2.607730305		1.761797095
Al		1.362449644		2.666504494		-0.648552114
F		1.000731308		3.096747606		2.836907393
F		-1.582010763		2.687361732		2.175686036
F		-0.495024661		-0.030726956		2.75225738
F		1.821618943		0.867120743		1.930512395
F		2.968057365		1.854048053		-0.068642476
F		1.085535109		3.034190113		-2.397633872
F		1.750477864		4.016258637		0.639382427
F		4.106830628		3.123472607		2.45743715
F		-0.015866201		1.79800388		0.197100623
