12
-186.39349496
Al		-0.079674043		1.643610211		2.171228319
Al		2.523312918		2.607750081		1.761666279
Al		1.362586176		2.666572491		-0.648602596
F		1.000714839		3.096872975		2.836953344
F		-1.582133859		2.687449139		2.175665531
F		-0.495088434		-0.030871379		2.752241085
F		1.822025996		0.867081648		1.930395066
F		2.968156699		1.853951393		-0.068504878
F		1.085466219		3.034169419		-2.397702474
F		1.750567963		4.016298372		0.639593399
F		4.10669635		3.123406108		2.457361349
F		-0.016071628		1.797905029		0.196605994
