12
-186.39349496
Al		-0.079789103		1.643793349		2.172259977
Al		2.523180842		2.607789633		1.761404647
Al		1.36285924		2.666708485		-0.64870356
F		1.000681901		3.097123713		2.837045246
F		-1.582380051		2.687623953		2.175624521
F		-0.49521598		-0.031160225		2.752208495
F		1.822840102		0.867003458		1.930160408
F		2.968355367		1.853758073		-0.068229682
F		1.085328439		3.034128031		-2.397839678
F		1.750748161		4.016377842		0.640015343
F		4.106427794		3.12327311		2.457209747
F		-0.016482482		1.797707327		0.195616736
