12
-186.39349496
Al		-0.079846633		1.643884918		2.172775806
Al		2.523114804		2.607809409		1.761273831
Al		1.362995772		2.666776482		-0.648754042
F		1.000665432		3.097249082		2.837091197
F		-1.582503147		2.68771136		2.175604016
F		-0.495279753		-0.031304648		2.7521922
F		1.823247155		0.866964363		1.930043079
F		2.968454701		1.853661413		-0.068092084
F		1.085259549		3.034107337		-2.39790828
F		1.75083826		4.016417577		0.640226315
F		4.106293516		3.123206611		2.457133946
F		-0.016687909		1.797608476		0.195122107
