12
-186.39349496
Al		-0.079904163		1.643976487		2.173291635
Al		2.523048766		2.607829185		1.761143015
Al		1.363132304		2.666844479		-0.648804524
F		1.000648963		3.097374451		2.837137148
F		-1.582626243		2.687798767		2.175583511
F		-0.495343526		-0.031449071		2.752175905
F		1.823654208		0.866925268		1.92992575
F		2.968554035		1.853564753		-0.067954486
F		1.085190659		3.034086643		-2.397976882
F		1.750928359		4.016457312		0.640437287
F		4.106159238		3.123140112		2.457058145
F		-0.016893336		1.797509625		0.194627478
