12
-186.39349496
Al		-0.080191813		1.644434332		2.17587078
Al		2.522718576		2.607928065		1.760488935
Al		1.363814964		2.667184464		-0.649056934
F		1.000566618		3.098001296		2.837366903
F		-1.583241723		2.688235802		2.175480986
F		-0.495662391		-0.032171186		2.75209443
F		1.825689473		0.866729793		1.929339105
F		2.969050705		1.853081453		-0.067266496
F		1.084846209		3.033983173		-2.398319892
F		1.751378854		4.016655987		0.641492147
F		4.105487848		3.122807617		2.45667914
F		-0.017920471		1.79701537		0.192154333
