12
-186.39349496
Al		-0.080364403		1.644709039		2.177418267
Al		2.522520462		2.607987393		1.760096487
Al		1.36422456		2.667388455		-0.64920838
F		1.000517211		3.098377403		2.837504756
F		-1.583611011		2.688498023		2.175419471
F		-0.49585371		-0.032604455		2.752045545
F		1.826910632		0.866612508		1.928987118
F		2.969348707		1.852791473		-0.066853702
F		1.084639539		3.033921091		-2.398525698
F		1.751649151		4.016775192		0.642125063
F		4.105085014		3.12260812		2.456451737
F		-0.018536752		1.796718817		0.190670446
