12
-186.39349496
Al		-0.080594523		1.645075315		2.179481583
Al		2.52225631		2.608066497		1.759573223
Al		1.364770688		2.667660443		-0.649410308
F		1.000451335		3.098878879		2.83768856
F		-1.584103395		2.688847651		2.175337451
F		-0.496108802		-0.033182147		2.751980365
F		1.828538844		0.866456128		1.928517802
F		2.969746043		1.852404833		-0.06630331
F		1.084363979		3.033838315		-2.398800106
F		1.752009547		4.016934132		0.642968951
F		4.104547902		3.122342124		2.456148533
F		-0.01935846		1.796323413		0.18869193
