12
-186.39349496
Al		-0.080652053		1.645166884		2.179997412
Al		2.522190272		2.608086273		1.759442407
Al		1.36490722		2.66772844		-0.64946079
F		1.000434866		3.099004248		2.837734511
F		-1.584226491		2.688935058		2.175316946
F		-0.496172575		-0.03332657		2.75196407
F		1.828945897		0.866417033		1.928400473
F		2.969845377		1.852308173		-0.066165712
F		1.084295089		3.033817621		-2.398868708
F		1.752099646		4.016973867		0.643179923
F		4.104413624		3.122275625		2.456072732
F		-0.019563887		1.796224562		0.188197301
