12
-186.39349496
Al		-0.078178263		1.641229417		2.157816765
Al		2.525029906		2.607235905		1.765067495
Al		1.359036344		2.664804569		-0.647290064
F		1.001143033		3.093613381		2.835758618
F		-1.578933363		2.685176557		2.176198661
F		-0.493430336		-0.027116381		2.752664755
F		1.811442618		0.868098118		1.93344562
F		2.965574015		1.856464553		-0.072082426
F		1.087257359		3.034707463		-2.395918822
F		1.748225389		4.015265262		0.634108127
F		4.110187578		3.125135082		2.459332175
F		-0.010730526		1.800475155		0.209466348
