12
-186.39349496
Al		-0.080824643		1.645441591		2.181544899
Al		2.521992158		2.608145601		1.759049959
Al		1.365316816		2.667932431		-0.649612236
F		1.000385459		3.099380355		2.837872364
F		-1.584595779		2.689197279		2.175255431
F		-0.496363894		-0.033759839		2.751915185
F		1.830167056		0.866299748		1.928048486
F		2.970143379		1.852018193		-0.065752918
F		1.084088419		3.033755539		-2.399074514
F		1.752369943		4.017093072		0.643812839
F		4.10401079		3.122076128		2.455845329
F		-0.020180168		1.795928009		0.186713414
