12
-186.39349496
Al		-0.080997233		1.645716298		2.183092386
Al		2.521794044		2.608204929		1.758657511
Al		1.365726412		2.668136422		-0.649763682
F		1.000336052		3.099756462		2.838010217
F		-1.584965067		2.6894595		2.175193916
F		-0.496555213		-0.034193108		2.7518663
F		1.831388215		0.866182463		1.927696499
F		2.970441381		1.851728213		-0.065340124
F		1.083881749		3.033693457		-2.39928032
F		1.75264024		4.017212277		0.644445755
F		4.103607956		3.121876631		2.455617926
F		-0.020796449		1.795631456		0.185229527
