12
-186.39349496
Al		-0.081054763		1.645807867		2.183608215
Al		2.521728006		2.608224705		1.758526695
Al		1.365862944		2.668204419		-0.649814164
F		1.000319583		3.099881831		2.838056168
F		-1.585088163		2.689546907		2.175173411
F		-0.496618986		-0.034337531		2.751850005
F		1.831795268		0.866143368		1.92757917
F		2.970540715		1.851631553		-0.065202526
F		1.083812859		3.033672763		-2.399348922
F		1.752730339		4.017252012		0.644656727
F		4.103473678		3.121810132		2.455542125
F		-0.021001876		1.795532605		0.184734898
