12
-186.39349496
Al		-0.081169823		1.645991005		2.184639873
Al		2.52159593		2.608264257		1.758265063
Al		1.366136008		2.668340413		-0.649915128
F		1.000286645		3.100132569		2.83814807
F		-1.585334355		2.689721721		2.175132401
F		-0.496746532		-0.034626377		2.751817415
F		1.832609374		0.866065178		1.927344512
F		2.970739383		1.851438233		-0.06492733
F		1.083675079		3.033631375		-2.399486126
F		1.752910537		4.017331482		0.645078671
F		4.103205122		3.121677134		2.455390523
F		-0.02141273		1.795334903		0.18374564
