12
-186.39349496
Al		-0.081515003		1.646540419		2.187734847
Al		2.521199702		2.608382913		1.757480167
Al		1.3669552		2.668748395		-0.65021802
F		1.000187831		3.100884783		2.838423776
F		-1.586072931		2.690246163		2.175009371
F		-0.49712917		-0.035492915		2.751719645
F		1.835051692		0.865830608		1.926640538
F		2.971335387		1.850858273		-0.064101742
F		1.083261739		3.033507211		-2.399897738
F		1.753451131		4.017569892		0.646344503
F		4.102399454		3.12127814		2.454935717
F		-0.022645292		1.794741797		0.180777866
