12
-186.39349496
Al		-0.081802653		1.646998264		2.190313992
Al		2.520869512		2.608481793		1.756826087
Al		1.36763786		2.66908838		-0.65047043
F		1.000105486		3.101511628		2.838653531
F		-1.586688411		2.690683198		2.174906846
F		-0.497448035		-0.03621503		2.75163817
F		1.837086957		0.865635133		1.926053893
F		2.971832057		1.850374973		-0.063413752
F		1.082917289		3.033403741		-2.400240748
F		1.753901626		4.017768567		0.647399363
F		4.101728064		3.120945645		2.454556712
F		-0.023672427		1.794247542		0.178304721
