12
-186.39349496
Al		-0.078293323		1.641412555		2.158848423
Al		2.52489783		2.607275457		1.764805863
Al		1.359309408		2.664940563		-0.647391028
F		1.001110095		3.093864119		2.83585052
F		-1.579179555		2.685351371		2.176157651
F		-0.493557882		-0.027405227		2.752632165
F		1.812256724		0.868019928		1.933210962
F		2.965772683		1.856271233		-0.07180723
F		1.087119579		3.034666075		-2.396056026
F		1.748405587		4.015344732		0.634530071
F		4.109919022		3.125002084		2.459180573
F		-0.01114138		1.800277453		0.20847709
