12
-186.39349496
Al		-0.082090303		1.647456109		2.192893137
Al		2.520539322		2.608580673		1.756172007
Al		1.36832052		2.669428365		-0.65072284
F		1.000023141		3.102138473		2.838883286
F		-1.587303891		2.691120233		2.174804321
F		-0.4977669		-0.036937145		2.751556695
F		1.839122222		0.865439658		1.925467248
F		2.972328727		1.849891673		-0.062725762
F		1.082572839		3.033300271		-2.400583758
F		1.754352121		4.017967242		0.648454223
F		4.101056674		3.12061315		2.454177707
F		-0.024699562		1.793753287		0.175831576
