12
-186.39349496
Al		-0.082262893		1.647730816		2.194440624
Al		2.520341208		2.608640001		1.755779559
Al		1.368730116		2.669632356		-0.650874286
F		0.999973734		3.10251458		2.839021139
F		-1.587673179		2.691382454		2.174742806
F		-0.497958219		-0.037370414		2.75150781
F		1.840343381		0.865322373		1.925115261
F		2.972626729		1.849601693		-0.062312968
F		1.082366169		3.033238189		-2.400789564
F		1.754622418		4.018086447		0.649087139
F		4.10065384		3.120413653		2.453950304
F		-0.025315843		1.793456734		0.174347689
