12
-186.39349496
Al		-0.082550543		1.648188661		2.197019769
Al		2.520011018		2.608738881		1.755125479
Al		1.369412776		2.669972341		-0.651126696
F		0.999891389		3.103141425		2.839250894
F		-1.588288659		2.691819489		2.174640281
F		-0.498277084		-0.038092529		2.751426335
F		1.842378646		0.865126898		1.924528616
F		2.973123399		1.849118393		-0.061624978
F		1.082021719		3.033134719		-2.401132574
F		1.755072913		4.018285122		0.650141999
F		4.09998245		3.120081158		2.453571299
F		-0.026342978		1.792962479		0.171874544
