12
-186.39349496
Al		-0.082723133		1.648463368		2.198567256
Al		2.519812904		2.608798209		1.754733031
Al		1.369822372		2.670176332		-0.651278142
F		0.999841982		3.103517532		2.839388747
F		-1.588657947		2.69208171		2.174578766
F		-0.498468403		-0.038525798		2.75137745
F		1.843599805		0.865009613		1.924176629
F		2.973421401		1.848828413		-0.061212184
F		1.081815049		3.033072637		-2.40133838
F		1.75534321		4.018404327		0.650774915
F		4.099579616		3.119881661		2.453343896
F		-0.026959259		1.792665926		0.170390657
