12
-186.39349496
Al		-0.078408383		1.641595693		2.159880081
Al		2.524765754		2.607315009		1.764544231
Al		1.359582472		2.665076557		-0.647491992
F		1.001077157		3.094114857		2.835942422
F		-1.579425747		2.685526185		2.176116641
F		-0.493685428		-0.027694073		2.752599575
F		1.81307083		0.867941738		1.932976304
F		2.965971351		1.856077913		-0.071532034
F		1.086981799		3.034624687		-2.39619323
F		1.748585785		4.015424202		0.634952015
F		4.109650466		3.124869086		2.459028971
F		-0.011552234		1.800079751		0.207487832
