12
-186.39349496
Al		-0.083413493		1.649562196		2.204757204
Al		2.519020448		2.609035521		1.753163239
Al		1.371460756		2.670992296		-0.651883926
F		0.999644354		3.10502196		2.839940159
F		-1.590135099		2.693130594		2.174332706
F		-0.499233679		-0.040258874		2.75118191
F		1.848484441		0.864540473		1.922768681
F		2.974613409		1.847668493		-0.059561008
F		1.080988369		3.032824309		-2.402161604
F		1.756424398		4.018881147		0.653306579
F		4.09796828		3.119083673		2.452434284
F		-0.029424383		1.791479714		0.164455109
