12
Properties=species:S:1:pos:R:3:forces:R:3 energy=-185.72175887 pbc="F F F"
Al    -0.31245593800000004    0.91837826    -1.7684312359999999    -0.12581    -1.138865    1.103753
Al    -0.423175214    1.132978253    1.330167936    -0.282086    0.089085    -0.263894
Al    -2.9323956190000002    0.5507313890000001    -1.839098342    -0.296668    0.23848    -0.099624
F    -3.363126661    0.299465908    -3.5956663079999998    0.019682    0.084685    -0.019276
F    -1.371805557    -0.653318801    -1.782180345    0.092358    -0.251641    0.406209
F    -1.828605687    2.1321005029999998    -1.8666020829999999    0.098629    0.316848    -0.461294
F    -1.912076525    1.0464772390000001    0.23711412399999998    -0.584024    0.559398    0.13278
F    0.858172827    0.759137343    -0.31219731100000003    0.518894    -0.702306    0.002749
F    -0.8193457749999999    2.758936297    2.148433847    -0.648993    0.521601    0.277828
F    0.370905515    -0.363396358    2.174816245    0.948432    -0.469804    -0.317884
F    -4.069381991999999    0.23851577000000002    -0.44909516499999996    -0.038608    -0.106226    0.035509
F    0.18335592700000003    1.3859156369999999    -3.644214829    0.298192    0.858744    -0.796856
