      12
SCF Done            -185.72175887
Al           -0.324139938         0.848739260        -1.815953236
Al           -0.454734214         1.106044253         1.281058936
Al           -3.035694619         0.531533389        -1.860204342
F            -3.540701661         0.356363908        -3.600521308
F            -1.476277557        -0.651277801        -1.647238345
F            -1.816662687         2.018869503        -2.084855083
F            -2.103781525         1.037409239         0.449590124
F             0.690263827         0.835699343        -0.286489311
F            -0.630059775         2.716925297         2.169847847
F             0.676344515        -0.245908358         1.869200245
F            -4.268930992         0.175151770        -0.580112165
F             0.692523927         1.498558637        -3.238713829
