      12
SCF Done            -158.46021171
Al            0.317913195        -0.413790078         1.941751717
Al            2.622013363        -1.867319854        -0.598878490
Al           -1.128390982        -1.915484740        -1.145244136
F             3.659681711        -0.245162793        -1.217511203
F            -1.986921851        -0.317680889        -2.040118621
F             2.778478387        -3.870311677        -0.478113592
F            -1.262382573        -3.922207185        -1.066793669
F             2.034840996        -1.473759332         1.387077400
F             0.862725164        -1.413509882        -1.709856665
F             0.067184751        -1.297794441         3.740754281
F             0.418190579         1.380128366         1.095278072
F            -1.142224869        -1.514561321         0.924236812
