12
Properties=species:S:1:pos:R:3:forces:R:3 energy=-185.77729729 pbc="F F F"
Al    0.464810972    -2.280302611    -2.237354861    -0.0    -0.0    -0.0
Al    1.95204013    -0.561794256    -0.6283066239999999    0.0    -0.0    0.0
Al    -0.441802206    0.282219903    -1.570974083    -0.0    0.0    -0.0
F    3.7191032880000003    -0.156319616    -0.235279023    0.0    -0.0    0.0
F    -0.382046974    -4.086434893    -1.7631536360000002    -0.0    -0.0    -0.0
F    2.273486638    -1.751667276    -2.359741589    0.0    0.0    -0.0
F    1.392310495    0.549119339    -2.05903042    0.0    -0.0    -0.0
F    -1.362007422    1.682875531    -2.4382029110000003    -0.0    0.0    -0.0
F    -1.031600486    -1.3877458520000001    -1.080451769    -0.0    0.0    0.0
F    -0.135455974    -0.8801615089999999    -3.334271181    0.0    0.0    -0.0
F    0.429352996    0.451255998    0.211639998    -0.0    -0.0    0.0
F    1.022002134    -2.1005576099999996    -0.25141617299999997    -0.0    0.0    0.0
