12
Properties=species:S:1:pos:R:3:forces:R:3 energy=-186.24054615 pbc="F F F"
Al    0.013598342999999999    1.617215396    2.085829821    0.1714    0.004665    -0.080225
Al    2.556981196    3.185613525    1.288596875    -0.577913    1.779196    -0.956665
Al    1.1465333580000001    2.668554381    -0.640926753    -0.630215    0.819049    0.334688
F    0.890968352    3.109758619    2.9411384320000002    0.05032    -0.144705    -0.021282
F    -1.7888042469999998    2.8284673430000002    2.196122695    -0.373431    0.231773    0.013156
F    -0.49266006    -0.097888718    2.7824501600000002    0.045945    -0.040183    0.008411
F    1.742617269    0.45853508499999995    1.997961334    -0.247895    -1.204054    0.129981
F    3.066238742    1.786774572    0.0011753460000000077    0.647894    -0.45211    0.140574
F    1.110761814    2.996014452    -2.2434468040000004    0.051531    -0.095993    0.207688
F    1.919912868    3.712934387    0.890782765    0.203861    -0.990678    0.062722
F    4.147795966    3.109426911    2.495808868    0.493645    0.067848    0.2338
F    0.1496933    1.8827284679999998    0.116959705    0.164859    0.025192    -0.072847
