      12
SCF Done            -186.24054615
Al           -0.071871657         1.639275396         2.153013821
Al            2.513428196         2.660564525         1.741068875
Al            1.336913358         2.689964381        -0.640235753
F             1.003515352         3.087976619         2.834269432
F            -1.592221247         2.693611343         2.176821695
F            -0.491835060        -0.027785718         2.753169160
F             1.796987269         0.821153085         1.938761334
F             2.989107742         1.841444572        -0.065894654
F             1.089640814         3.031122452        -2.387631804
F             1.753271868         3.982318387         0.632216765
F             4.128688966         3.128765911         2.467906868
F            -0.003747700         1.802011468         0.209268705
