12
Properties=species:S:1:pos:R:3:forces:R:3 energy=-183.64476145 pbc="F F F"
Al    -1.7411077609999999    2.75838502    -1.2301938909999999    0.212664    -0.138036    0.168197
Al    -0.29376445500000004    0.096012106    -2.600051374    1.011088    0.940889    -1.085178
Al    -2.439226776    -0.340513818    -0.24581673700000004    -1.120571    0.507166    1.253913
F    -0.651276441    3.749535436    -0.05322605699999999    0.114899    0.171743    0.136556
F    -3.111714447    3.208552293    -2.3957836919999997    0.112207    -0.331963    0.040704
F    -1.4028286799999998    -1.160718827    -1.648599361    0.070779    4.405868    0.881448
F    -2.446746462    1.564142783    -0.028349038000000007    1.073233    -0.747236    -1.768265
F    -3.5298998630000002    -1.638584832    0.899024053    -1.420086    -1.502309    1.49633
F    0.941143998    -0.728883141    -4.0070920039999995    1.57944    -0.892011    -1.795075
F    -0.42720942500000003    1.975048014    -2.2444042310000003    -1.475467    -1.265803    1.028447
F    -2.0575671570000003    0.07140005099999996    -2.016813928    0.454755    -0.514685    0.318995
F    -0.661668068    -0.043739361000000004    -0.766052308    -0.612941    -0.633623    -0.676072
