12
Properties=species:S:1:pos:R:3:forces:R:3 energy=-185.67552465 pbc="F F F"
Al    1.27973418    0.134954817    2.248591573    0.058143    0.116282    -0.146568
Al    1.248826    1.282986    -0.3427865    0.66846    0.627984    -0.120973
Al    -0.43564156200000004    0.8122437499999999    -2.490778273    0.14433    0.073931    0.109912
F    -1.7572601719999998    -0.455006453    -2.1949906059999997    0.030809    -0.002919    0.064722
F    2.379017253    -0.900389953    0.970003452    1.2329    -2.479152    0.930143
F    0.086912139    1.90115029    -3.904718333    0.030345    0.028215    -0.004847
F    -0.19244280999999996    1.803770753    -0.734266549    -2.553276    1.238735    -0.691185
F    2.718180057    2.544462012    -0.346371443    1.692464    1.589981    -0.30629
F    1.202978739    0.176306405    -1.471909254    0.19907    -1.971292    -2.146112
F    0.11912161700000001    1.735291929    2.164605539    -1.519446    0.730864    2.385066
F    2.447845969    0.550933576    3.5405824370000003    0.02994    0.028417    -0.006058
F    0.110914175    -1.115315852    2.795965571    -0.013739    0.018954    -0.06781
