12
Properties=species:S:1:pos:R:3:forces:R:3 energy=-185.06988670 pbc="F F F"
Al    0.174614343    1.619414996    2.074642421    0.497846    0.354653    -0.240928
Al    2.797977396    3.0247405250000003    1.251998475    -2.860007    4.786222    -3.403236
Al    1.3174427579999999    2.556709981    -0.666754953    -1.368489    2.215979    1.393202
F    0.734450352    3.094061819    3.0224356319999997    0.035703    -0.34824    0.035698
F    -1.867122847    2.878709943    2.194535895    -1.105616    0.64218    0.037907
F    -0.52160626    -0.156602718    2.80306496    0.23051    -0.144305    -0.003898
F    1.7377680690000001    0.718390085    1.990243534    -0.200186    -2.828009    0.315142
F    2.9337115419999997    1.883292972    -0.002998054    1.80072    -1.388764    0.113058
F    1.088085014    3.024317452    -2.3430818039999997    0.11672    -0.240456    0.599968
F    1.997415868    3.762410987    1.013855765    0.841633    -3.2582    0.631664
F    3.907452966    3.0696655109999997    2.398762268    1.55412    0.123502    0.756209
F    0.0536537    1.834864668    0.189856105    0.457045    0.085438    -0.234785
