12
Properties=species:S:1:pos:R:3:forces:R:3 energy=-185.80858120 pbc="F F F"
Al    1.26545818    0.035539917000000004    2.514464373    -0.059124    -0.900058    1.87397
Al    0.9323683    1.6317462    0.3108515    1.20136    -2.204416    7.136333
Al    -0.406673462    0.99804905    -2.198958373    1.747514    0.448185    2.317019
F    -1.711427872    -0.444750253    -2.224707006    -1.718837    -1.49383    0.044259
F    2.2414468530000002    -0.715942853    0.888245352    -0.735987    1.957325    -1.824388
F    0.08186623900000001    1.8390996899999998    -3.865723633    0.359861    1.093881    -1.732687
F    -0.36992400999999997    1.842844153    -0.914857749    -1.148124    0.084946    -1.423935
F    2.601956757    2.403797112    -0.33156844300000005    0.116396    0.179296    -0.175394
F    1.357952739    -0.069098995    -1.673348654    -0.773463    -0.352017    -1.621987
F    0.692608417    1.451024729    1.129119239    0.820582    0.141926    -2.647213
F    2.499137569    0.567522676    3.574645237    -1.643234    -0.748942    -1.456183
F    0.081246375    -1.151833852    2.7936273710000004    1.833056    1.793703    -0.489795
