12
Properties=species:S:1:pos:R:3:forces:R:3 energy=-185.16959146 pbc="F F F"
Al    0.479447372    -2.308050211    -2.295943061    1.289703    0.697992    -2.4765
Al    2.27874753    -0.480190856    -1.252991824    0.81394    0.214684    -2.752273
Al    -0.14519380599999998    0.38925630299999997    -2.270275283    1.454866    -0.015208    -2.483287
F    3.5007812879999998    -0.208610216    -0.053266223    -0.038285    -0.010718    0.194647
F    -0.151014974    -3.9183664929999997    -2.170002836    -0.092043    -0.065324    0.163487
F    1.886191038    -1.725770076    -2.068062989    -0.949622    0.329754    1.060371
F    1.3752506949999999    0.4805613390000001    -2.04706742    -0.703581    -0.732688    1.05026
F    -1.418764422    1.555989931    -2.117908111    -0.110704    0.015254    0.164253
F    -1.350556086    -1.325241052    -0.772034569    -1.003604    -0.241816    0.987866
F    -0.096534974    -1.014582709    -2.900176381    0.005143    -0.012713    1.461068
F    0.405055396    0.458235598    0.245592798    -0.432105    0.338753    1.31913
F    1.014529134    -2.1735770100000003    0.220547027    -0.233706    -0.51797    1.310977
