12
Properties=species:S:1:pos:R:3:forces:R:3 energy=-186.37603276 pbc="F F F"
Al    -0.11764185700000002    1.758495796    2.165519921    0.150606    0.4392    -0.140729
Al    2.559753696    2.583669825    1.7592171749999999    0.142146    0.126834    0.031732
Al    1.359017058    2.546302981    -0.649387653    0.018647    -0.049574    0.127441
F    1.072832552    2.995621119    2.9766810319999997    -0.022167    -0.002221    0.002914
F    -1.580055947    2.9118579430000002    1.890188695    -0.102441    0.101347    0.007854
F    -0.5331180600000001    0.08677458199999999    3.07150806    -0.134083    -0.520243    0.052539
F    1.849813769    0.841888985    1.800424434    0.02894    -0.094853    0.005098
F    3.086806142    1.938020472    -0.155785454    -0.006099    -0.018395    -0.04383
F    1.0180605139999999    2.9321031520000003    -2.3892042040000003    -0.023264    0.004155    -0.089136
F    1.586066668    3.924047587    0.695413065    0.000447    0.033487    0.0036
F    4.105587366    3.235272811    2.431799368    -0.057162    -0.012712    -0.02648
F    0.040413000000000004    1.615785568    0.212238905    0.004431    -0.007023    0.068997
