      12
SCF Done            -167.81828819
Al           -0.077489413         1.629312372         2.154765220
Al            2.514360496         2.583780225         1.751791975
Al            1.355061284         2.678618184        -0.661769654
F             1.017220178         3.033560936         2.885093663
F            -1.578341883         2.677337122         2.015013586
F            -0.460009871         0.057722934         3.034681430
F             1.778916953         0.848081193         1.826345065
F             2.996644545         1.917504253        -0.108852416
F             1.114709009         3.112957733        -2.398625412
F             1.684712094         3.997158587         0.674300467
F             4.099932568         3.075402377         2.474269980
F             0.003582209         1.757784210         0.167457093
