12
Properties=species:S:1:pos:R:3:forces:R:3 energy=-187.22441480 pbc="F F F"
Al    0.308132593    -0.562046158    1.775400339    -0.092714    -0.048336    0.208853
Al    2.385419965    -1.7798636719999998    -0.542714497    -0.040142    -0.029568    -0.082539
Al    -0.882030381    -1.866645358    -1.0301347429999999    0.160494    0.068439    -0.099491
F    3.4952703069999997    -0.682076193    -1.51305678    0.154877    0.155129    -0.115494
F    -1.617422254    -0.377587888    -1.825121197    -0.115196    0.185211    -0.103068
F    2.772133195    -3.521578494    0.02058375699999998    0.028667    -0.220075    0.014618
F    -1.521167566    -3.581810002    -1.19788172    -0.063293    -0.269782    -0.055944
F    2.008241597    -0.8094411930000001    1.0101676019999999    0.200174    -0.019403    0.118519
F    0.866596164    -1.853455082    -1.599695265    -0.060156    -0.001884    -0.008463
F    0.360474352    -1.472893563    3.392722889    0.000641    -0.02924    0.07522
F    -0.100007029    1.253619899    1.547370936    -0.038836    0.322844    -0.09102
F    -0.834530468    -1.6153829830000002    0.793996214    -0.134514    -0.11334    0.138807
