12
Properties=species:S:1:pos:R:3:forces:R:3 energy=-185.78423352 pbc="F F F"
Al    -1.563554361    2.7431767199999997    -1.071204291    0.445736    0.370659    0.474942
Al    -0.591173855    0.021333006    -2.382932374    -0.948909    0.384648    0.542966
Al    -2.246006676    -0.315367818    -0.567069937    0.35722    0.650399    -0.89026
F    -0.966014041    4.279981136    -0.241697057    -0.269175    0.587126    -0.136439
F    -2.871506347    3.4671099930000002    -2.128934492    -0.00927    0.293573    0.045987
F    -1.33334068    -1.621364427    -1.670687561    0.105776    -0.050214    0.087083
F    -2.5248415619999998    1.509071483    0.062640262    0.028542    -0.134029    0.055209
F    -2.830630363    -2.078093932    0.11163525299999999    0.000541    -1.135024    0.07381
F    0.327686998    -1.435486841    -3.354014504    0.277888    -1.078595    -0.230526
F    -0.336838925    1.954253714    -2.338273531    0.08137    -0.123282    -0.00276
F    -2.496508257    0.573306651    -2.323766528    -0.036751    -0.026234    -0.038359
F    -0.403197668    0.425128139    -0.443565208    -0.032967    0.260973    0.018346
