12
-187.24475565
Al		0.352536927		-0.596573976		1.739532767
Al		2.349372065		-1.791478698		-0.521030212
Al		-0.894640316		-1.830371154		-0.989492668
F		3.475755609		-0.500369765		-1.116864725
F		-1.835905453		-0.564780371		-1.885000555
F		2.734328629		-3.564948337		-0.49138477
F		-1.229456243		-3.613014247		-1.064600009
F		1.897886406		-1.4147212		1.209501606
F		0.830113364		-1.510631662		-1.489381199
F		0.112593457		-1.167732775		3.443487829
F		0.409722397		1.136733634		1.195641342
F		-0.960382899		-1.449381331		0.796158408
