12
-187.24475565
Al		0.352744765		-0.596378183		1.739469842
Al		2.349291258		-1.791674044		-0.521142835
Al		-0.894765697		-1.830369255		-0.989316706
F		3.475726816		-0.500658263		-1.117156548
F		-1.835995496		-0.564797834		-1.884895836
F		2.734149432		-3.565134527		-0.491350497
F		-1.229681148		-3.61299818		-1.064269819
F		1.897969721		-1.414702762		1.209407335
F		0.829992164		-1.510784432		-1.48938888
F		0.112856436		-1.167402156		3.443503511
F		0.409967884		1.136846296		1.195430647
F		-0.960332544		-1.449217046		0.796277522
