12
-187.24475565
Al		0.352952603		-0.59618239		1.739406917
Al		2.349210451		-1.79186939		-0.521255458
Al		-0.894891078		-1.830367356		-0.989140744
F		3.475698023		-0.500946761		-1.117448371
F		-1.836085539		-0.564815297		-1.884791117
F		2.733970235		-3.565320717		-0.491316224
F		-1.229906053		-3.612982113		-1.063939629
F		1.898053036		-1.414684324		1.209313064
F		0.829870964		-1.510937202		-1.489396561
F		0.113119415		-1.167071537		3.443519193
F		0.410213371		1.136958958		1.195219952
F		-0.960282189		-1.449052761		0.796396636
