12
-187.24475565
Al		0.353160441		-0.595986597		1.739343992
Al		2.349129644		-1.792064736		-0.521368081
Al		-0.895016459		-1.830365457		-0.988964782
F		3.47566923		-0.501235259		-1.117740194
F		-1.836175582		-0.56483276		-1.884686398
F		2.733791038		-3.565506907		-0.491281951
F		-1.230130958		-3.612966046		-1.063609439
F		1.898136351		-1.414665886		1.209218793
F		0.829749764		-1.511089972		-1.489404242
F		0.113382394		-1.166740918		3.443534875
F		0.410458858		1.13707162		1.195009257
F		-0.960231834		-1.448888476		0.79651575
