12
-187.24475565
Al		0.350042871		-0.598923492		1.740287867
Al		2.350341749		-1.789134546		-0.519678736
Al		-0.893135744		-1.830393942		-0.991604212
F		3.476101125		-0.496907789		-1.113362849
F		-1.834824937		-0.564570815		-1.886257183
F		2.736478993		-3.562714057		-0.491796046
F		-1.226757383		-3.613207051		-1.068562289
F		1.896886626		-1.414942456		1.210632858
F		0.831567764		-1.508798422		-1.489289027
F		0.109437709		-1.171700203		3.443299645
F		0.406776553		1.13538169		1.198169682
F		-0.960987159		-1.451352751		0.79472904
