12
-187.24475565
Al		0.353783955		-0.595399218		1.739155217
Al		2.348887223		-1.792650774		-0.52170595
Al		-0.895392602		-1.83035976		-0.988436896
F		3.475582851		-0.502100753		-1.118615663
F		-1.836445711		-0.564885149		-1.884372241
F		2.733253447		-3.566065477		-0.491179132
F		-1.230805673		-3.612917845		-1.062618869
F		1.898386296		-1.414610572		1.20893598
F		0.829386164		-1.511548282		-1.489427285
F		0.114171331		-1.165749061		3.443581921
F		0.411195319		1.137409606		1.194377172
F		-0.960080769		-1.448395621		0.796873092
