12
-187.24475565
Al		0.354615307		-0.594616046		1.738903517
Al		2.348563995		-1.793432158		-0.522156442
Al		-0.895894126		-1.830352164		-0.987733048
F		3.475467679		-0.503254745		-1.119782955
F		-1.836805883		-0.564955001		-1.883953365
F		2.732536659		-3.566810237		-0.49104204
F		-1.231705293		-3.612853577		-1.061298109
F		1.898719556		-1.41453682		1.208558896
F		0.828901364		-1.512159362		-1.489458009
F		0.115223247		-1.164426585		3.443644649
F		0.412177267		1.137860254		1.193534392
F		-0.959879349		-1.447738481		0.797349548
