12
-187.24475565
Al		0.356901525		-0.592462323		1.738211342
Al		2.347675118		-1.795580964		-0.523395295
Al		-0.897273317		-1.830331275		-0.985797466
F		3.475150956		-0.506428223		-1.122993008
F		-1.837796356		-0.565147094		-1.882801456
F		2.730565492		-3.568858327		-0.490665037
F		-1.234179248		-3.61267684		-1.057666019
F		1.899636021		-1.414334002		1.207521915
F		0.827568164		-1.513839832		-1.4895425
F		0.118116016		-1.160789776		3.443817151
F		0.414877624		1.139099536		1.191216747
F		-0.959325444		-1.445931346		0.798659802
