12
-187.24475565
Al		0.357109363		-0.59226653		1.738148417
Al		2.347594311		-1.79577631		-0.523507918
Al		-0.897398698		-1.830329376		-0.985621504
F		3.475122163		-0.506716721		-1.123284831
F		-1.837886399		-0.565164557		-1.882696737
F		2.730386295		-3.569044517		-0.490630764
F		-1.234404153		-3.612660773		-1.057335829
F		1.899719336		-1.414315564		1.207427644
F		0.827446964		-1.513992602		-1.489550181
F		0.118378995		-1.160459157		3.443832833
F		0.415123111		1.139212198		1.191006052
F		-0.959275089		-1.445767061		0.798778916
