12
-187.24475565
Al		0.357317201		-0.592070737		1.738085492
Al		2.347513504		-1.795971656		-0.523620541
Al		-0.897524079		-1.830327477		-0.985445542
F		3.47509337		-0.507005219		-1.123576654
F		-1.837976442		-0.56518202		-1.882592018
F		2.730207098		-3.569230707		-0.490596491
F		-1.234629058		-3.612644706		-1.057005639
F		1.899802651		-1.414297126		1.207333373
F		0.827325764		-1.514145372		-1.489557862
F		0.118641974		-1.160128538		3.443848515
F		0.415368598		1.13932486		1.190795357
F		-0.959224734		-1.445602776		0.79889803
