12
-187.24475565
Al		0.359603419		-0.589917014		1.737393317
Al		2.346624627		-1.798120462		-0.524859394
Al		-0.89890327		-1.830306588		-0.98350996
F		3.474776647		-0.510178697		-1.126786707
F		-1.838966915		-0.565374113		-1.881440109
F		2.728235931		-3.571278797		-0.490219488
F		-1.237103013		-3.612467969		-1.053373549
F		1.900719116		-1.414094308		1.206296392
F		0.825992564		-1.515825842		-1.489642353
F		0.121534743		-1.156491729		3.444021017
F		0.418068955		1.140564142		1.188477712
F		-0.958670829		-1.443795641		0.800208284
