12
-187.24475565
Al		0.350666385		-0.598336113		1.740099092
Al		2.350099328		-1.789720584		-0.520016605
Al		-0.893511887		-1.830388245		-0.991076326
F		3.476014746		-0.497773283		-1.114238318
F		-1.835095066		-0.564623204		-1.885943026
F		2.735941402		-3.563272627		-0.491693227
F		-1.227432098		-3.61315885		-1.067571719
F		1.897136571		-1.414887142		1.210350045
F		0.831204164		-1.509256732		-1.48931207
F		0.110226646		-1.170708346		3.443346691
F		0.407513014		1.135719676		1.197537597
F		-0.960836094		-1.450859896		0.795086382
