12
-187.24475565
Al		0.361473961		-0.588154877		1.736826992
Al		2.345897364		-1.799878576		-0.525873001
Al		-0.900031699		-1.830289497		-0.981926302
F		3.47451751		-0.512775179		-1.129413114
F		-1.839777302		-0.56553128		-1.880497638
F		2.726623158		-3.572954507		-0.489911031
F		-1.239127158		-3.612323366		-1.050401839
F		1.901468951		-1.413928366		1.205447953
F		0.824901764		-1.517200772		-1.489711482
F		0.123901554		-1.153516158		3.444162155
F		0.420278338		1.1415781		1.186581457
F		-0.958217634		-1.442317076		0.80128031
