12
-187.24475565
Al		0.362305313		-0.587371705		1.736575292
Al		2.345574136		-1.80065996		-0.526323493
Al		-0.900533223		-1.830281901		-0.981222454
F		3.474402338		-0.513929171		-1.130580406
F		-1.840137474		-0.565601132		-1.880078762
F		2.72590637		-3.573699267		-0.489773939
F		-1.240026778		-3.612259098		-1.049081079
F		1.901802211		-1.413854614		1.205070869
F		0.824416964		-1.517811852		-1.489742206
F		0.12495347		-1.152193682		3.444224883
F		0.421260286		1.142028748		1.185738677
F		-0.958016214		-1.441659936		0.801756766
