12
-187.24475565
Al		0.362513151		-0.587175912		1.736512367
Al		2.345493329		-1.800855306		-0.526436116
Al		-0.900658604		-1.830280002		-0.981046492
F		3.474373545		-0.514217669		-1.130872229
F		-1.840227517		-0.565618595		-1.879974043
F		2.725727173		-3.573885457		-0.489739666
F		-1.240251683		-3.612243031		-1.048750889
F		1.901885526		-1.413836176		1.204976598
F		0.824295764		-1.517964622		-1.489749887
F		0.125216449		-1.151863063		3.444240565
F		0.421505773		1.14214141		1.185527982
F		-0.957965859		-1.441495651		0.80187588
