12
-187.24475565
Al		0.362720989		-0.586980119		1.736449442
Al		2.345412522		-1.801050652		-0.526548739
Al		-0.900783985		-1.830278103		-0.98087053
F		3.474344752		-0.514506167		-1.131164052
F		-1.84031756		-0.565636058		-1.879869324
F		2.725547976		-3.574071647		-0.489705393
F		-1.240476588		-3.612226964		-1.048420699
F		1.901968841		-1.413817738		1.204882327
F		0.824174564		-1.518117392		-1.489757568
F		0.125479428		-1.151532444		3.444256247
F		0.42175126		1.142254072		1.185317287
F		-0.957915504		-1.441331366		0.801994994
