12
-187.24475565
Al		0.363136665		-0.586588533		1.736323592
Al		2.345250908		-1.801441344		-0.526773985
Al		-0.901034747		-1.830274305		-0.980518606
F		3.474287166		-0.515083163		-1.131747698
F		-1.840497646		-0.565670984		-1.879659886
F		2.725189582		-3.574444027		-0.489636847
F		-1.240926398		-3.61219483		-1.047760319
F		1.902135471		-1.413780862		1.204693785
F		0.823932164		-1.518422932		-1.48977293
F		0.126005386		-1.150871206		3.444287611
F		0.422242234		1.142479396		1.184895897
F		-0.957814794		-1.441002796		0.802233222
