12
-187.24475565
Al		0.364175855		-0.585609568		1.736008967
Al		2.344846873		-1.802418074		-0.5273371
Al		-0.901661652		-1.83026481		-0.979638796
F		3.474143201		-0.516525653		-1.133206813
F		-1.840947861		-0.565758299		-1.879136291
F		2.724293597		-3.575374977		-0.489465482
F		-1.242050923		-3.612114495		-1.046109369
F		1.902552046		-1.413688672		1.20422243
F		0.823326164		-1.519186782		-1.489811335
F		0.127320281		-1.149218111		3.444366021
F		0.423469669		1.143042706		1.183842422
F		-0.957563019		-1.440181371		0.802828792
