12
-187.24475565
Al		0.365007207		-0.584826396		1.735757267
Al		2.344523645		-1.803199458		-0.527787592
Al		-0.902163176		-1.830257214		-0.978934948
F		3.474028029		-0.517679645		-1.134374105
F		-1.841308033		-0.565828151		-1.878717415
F		2.723576809		-3.576119737		-0.48932839
F		-1.242950543		-3.612050227		-1.044788609
F		1.902885306		-1.41361492		1.203845346
F		0.822841364		-1.519797862		-1.489842059
F		0.128372197		-1.147895635		3.444428749
F		0.424451617		1.143493354		1.182999642
F		-0.957361599		-1.439524231		0.803305248
