12
-187.24475565
Al		0.365215045		-0.584630603		1.735694342
Al		2.344442838		-1.803394804		-0.527900215
Al		-0.902288557		-1.830255315		-0.978758986
F		3.473999236		-0.517968143		-1.134665928
F		-1.841398076		-0.565845614		-1.878612696
F		2.723397612		-3.576305927		-0.489294117
F		-1.243175448		-3.61203416		-1.044458419
F		1.902968621		-1.413596482		1.203751075
F		0.822720164		-1.519950632		-1.48984974
F		0.128635176		-1.147565016		3.444444431
F		0.424697104		1.143606016		1.182788947
F		-0.957311244		-1.439359946		0.803424362
