12
-187.24475565
Al		0.366669911		-0.583260052		1.735253867
Al		2.343877189		-1.804762226		-0.528688576
Al		-0.903166224		-1.830242022		-0.977527252
F		3.473797685		-0.519987629		-1.136708689
F		-1.842028377		-0.565967855		-1.877879663
F		2.722143233		-3.577609257		-0.489054206
F		-1.244749783		-3.611921691		-1.042147089
F		1.903551826		-1.413467416		1.203091178
F		0.821871764		-1.521020022		-1.489903507
F		0.130476029		-1.145250683		3.444554205
F		0.426415513		1.14439465		1.181314082
F		-0.956958759		-1.438209951		0.80425816
