12
-187.24475565
Al		0.367709101		-0.582281087		1.734939242
Al		2.343473154		-1.805738956		-0.529251691
Al		-0.903793129		-1.830232527		-0.976647442
F		3.47365372		-0.521430119		-1.138167804
F		-1.842478592		-0.56605517		-1.877356068
F		2.721247248		-3.578540207		-0.488882841
F		-1.245874308		-3.611841356		-1.040496139
F		1.903968401		-1.413375226		1.202619823
F		0.821265764		-1.521783872		-1.489941912
F		0.131790924		-1.143597588		3.444632615
F		0.427642948		1.14495796		1.180260607
F		-0.956706984		-1.437388526		0.80485373
