12
-187.24475565
Al		0.367916939		-0.582085294		1.734876317
Al		2.343392347		-1.805934302		-0.529364314
Al		-0.90391851		-1.830230628		-0.97647148
F		3.473624927		-0.521718617		-1.138459627
F		-1.842568635		-0.566072633		-1.877251349
F		2.721068051		-3.578726397		-0.488848568
F		-1.246099213		-3.611825289		-1.040165949
F		1.904051716		-1.413356788		1.202525552
F		0.821144564		-1.521936642		-1.489949593
F		0.132053903		-1.143266969		3.444648297
F		0.427888435		1.145070622		1.180049912
F		-0.956656629		-1.437224241		0.804972844
