12
-187.24475565
Al		0.368956129		-0.581106329		1.734561692
Al		2.342988312		-1.806911032		-0.529927429
Al		-0.904545415		-1.830221133		-0.97559167
F		3.473480962		-0.523161107		-1.139918742
F		-1.84301885		-0.566159948		-1.876727754
F		2.720172066		-3.579657347		-0.488677203
F		-1.247223738		-3.611744954		-1.038514999
F		1.904468291		-1.413264598		1.202054197
F		0.820538564		-1.522700492		-1.489987998
F		0.133368798		-1.141613874		3.444726707
F		0.42911587		1.145633932		1.178996437
F		-0.956404854		-1.436402816		0.805568414
