12
-187.24475565
Al		0.370203157		-0.579931571		1.734184142
Al		2.34250347		-1.808083108		-0.530603167
Al		-0.905297701		-1.830209739		-0.974535898
F		3.473308204		-0.524892095		-1.14166968
F		-1.843559108		-0.566264726		-1.87609944
F		2.719096884		-3.580774487		-0.488471565
F		-1.248573168		-3.611648552		-1.036533859
F		1.904968181		-1.41315397		1.201488571
F		0.819811364		-1.523617112		-1.490034084
F		0.134946672		-1.13963016		3.444820799
F		0.430588792		1.146309904		1.177732267
F		-0.956102724		-1.435417106		0.806283098
