12
-187.24475565
Al		0.349419357		-0.599510871		1.740476642
Al		2.35058417		-1.788548508		-0.519340867
Al		-0.892759601		-1.830399639		-0.992132098
F		3.476187504		-0.496042295		-1.11248738
F		-1.834554808		-0.564518426		-1.88657134
F		2.737016584		-3.562155487		-0.491898865
F		-1.226082668		-3.613255252		-1.069552859
F		1.896636681		-1.41499777		1.210915671
F		0.831931364		-1.508340112		-1.489265984
F		0.108648772		-1.17269206		3.443252599
F		0.406040092		1.135043704		1.198801767
F		-0.961138224		-1.451845606		0.794371698
