12
-187.24475565
Al		0.346717463		-0.60205618		1.741294667
Al		2.351634661		-1.78600901		-0.517876768
Al		-0.891129648		-1.830424326		-0.994419604
F		3.476561813		-0.492291821		-1.108693681
F		-1.833384249		-0.564291407		-1.887932687
F		2.739346145		-3.559735017		-0.492344414
F		-1.223158903		-3.613464123		-1.073845329
F		1.895553586		-1.415237464		1.212141194
F		0.833506964		-1.506354102		-1.489166131
F		0.105230045		-1.176990107		3.443048733
F		0.402848761		1.133579098		1.201540802
F		-0.961792839		-1.453981311		0.792823216
