12
-187.24475565
Al		0.346509625		-0.602251973		1.741357592
Al		2.351715468		-1.785813664		-0.517764145
Al		-0.891004267		-1.830426225		-0.994595566
F		3.476590606		-0.492003323		-1.108401858
F		-1.833294206		-0.564273944		-1.888037406
F		2.739525342		-3.559548827		-0.492378687
F		-1.222933998		-3.61348019		-1.074175519
F		1.895470271		-1.415255902		1.212235465
F		0.833628164		-1.506201332		-1.48915845
F		0.104967066		-1.177320726		3.443033051
F		0.402603274		1.133466436		1.201751497
F		-0.961843194		-1.454145596		0.792704102
