12
-187.24475565
Al		0.346301787		-0.602447766		1.741420517
Al		2.351796275		-1.785618318		-0.517651522
Al		-0.890878886		-1.830428124		-0.994771528
F		3.476619399		-0.491714825		-1.108110035
F		-1.833204163		-0.564256481		-1.888142125
F		2.739704539		-3.559362637		-0.49241296
F		-1.222709093		-3.613496257		-1.074505709
F		1.895386956		-1.41527434		1.212329736
F		0.833749364		-1.506048562		-1.489150769
F		0.104704087		-1.177651345		3.443017369
F		0.402357787		1.133353774		1.201962192
F		-0.961893549		-1.454309881		0.792584988
