12
-187.24475565
Al		0.344223407		-0.604405696		1.742049767
Al		2.352604345		-1.783664858		-0.516525292
Al		-0.889625076		-1.830447114		-0.996531148
F		3.476907329		-0.488829845		-1.105191805
F		-1.832303733		-0.564081851		-1.889189315
F		2.741496509		-3.557500737		-0.49275569
F		-1.220460043		-3.613656927		-1.077807609
F		1.894553806		-1.41545872		1.213272446
F		0.834961364		-1.504520862		-1.489073959
F		0.102074297		-1.180957535		3.442860549
F		0.399902917		1.132227154		1.204069142
F		-0.962397099		-1.455952731		0.791393848
