12
-187.24475565
Al		0.342768541		-0.605776247		1.742490242
Al		2.353169994		-1.782297436		-0.515736931
Al		-0.888747409		-1.830460407		-0.997762882
F		3.47710888		-0.486810359		-1.103149044
F		-1.831673432		-0.56395961		-1.889922348
F		2.742750888		-3.556197407		-0.492995601
F		-1.218885708		-3.613769396		-1.080118939
F		1.893970601		-1.415587786		1.213932343
F		0.835809764		-1.503451472		-1.489020192
F		0.100233444		-1.183271868		3.442750775
F		0.398184508		1.13143852		1.205544007
F		-0.962749584		-1.457102726		0.79056005
