12
-187.24475565
Al		0.339858809		-0.608517349		1.743371192
Al		2.354301292		-1.779562592		-0.514160209
Al		-0.886992075		-1.830486993		-1.00022635
F		3.477511982		-0.482771387		-1.099063522
F		-1.83041283		-0.563715128		-1.891388414
F		2.745259646		-3.553590747		-0.493475423
F		-1.215737038		-3.613994334		-1.084741599
F		1.892804191		-1.415845918		1.215252137
F		0.837506564		-1.501312692		-1.488912658
F		0.096551738		-1.187900534		3.442531227
F		0.39474769		1.129861252		1.208493737
F		-0.963454554		-1.459402716		0.788892454
