12
-187.24475565
Al		0.338196105		-0.610083693		1.743874592
Al		2.354947748		-1.777999824		-0.513259225
Al		-0.885989027		-1.830502185		-1.001634046
F		3.477742326		-0.480463403		-1.096728938
F		-1.829692486		-0.563575424		-1.892226166
F		2.746693222		-3.552101227		-0.493749607
F		-1.213937798		-3.61412287		-1.087383119
F		1.892137671		-1.415993422		1.216006305
F		0.838476164		-1.500090532		-1.48885121
F		0.094447906		-1.190545486		3.442405771
F		0.392783794		1.128959956		1.210179297
F		-0.963857394		-1.460716996		0.787939542
