12
-187.24475565
Al		0.337572591		-0.610671072		1.744063367
Al		2.355190169		-1.777413786		-0.512921356
Al		-0.885612884		-1.830507882		-1.002161932
F		3.477828705		-0.479597909		-1.095853469
F		-1.829422357		-0.563523035		-1.892540323
F		2.747230813		-3.551542657		-0.493852426
F		-1.213263083		-3.614171071		-1.088373689
F		1.891887726		-1.416048736		1.216289118
F		0.838839764		-1.499632222		-1.488828167
F		0.093658969		-1.191537343		3.442358725
F		0.392047333		1.12862197		1.210811382
F		-0.964008459		-1.461209851		0.7875822
