12
-187.24475565
Al		0.337364753		-0.610866865		1.744126292
Al		2.355270976		-1.77721844		-0.512808733
Al		-0.885487503		-1.830509781		-1.002337894
F		3.477857498		-0.479309411		-1.095561646
F		-1.829332314		-0.563505572		-1.892645042
F		2.74741001		-3.551356467		-0.493886699
F		-1.213038178		-3.614187138		-1.088703879
F		1.891804411		-1.416067174		1.216383389
F		0.838960964		-1.499479452		-1.488820486
F		0.09339599		-1.191867962		3.442343043
F		0.391801846		1.128509308		1.211022077
F		-0.964058814		-1.461374136		0.787463086
