12
-187.24475565
Al		0.337156915		-0.611062658		1.744189217
Al		2.355351783		-1.777023094		-0.51269611
Al		-0.885362122		-1.83051168		-1.002513856
F		3.477886291		-0.479020913		-1.095269823
F		-1.829242271		-0.563488109		-1.892749761
F		2.747589207		-3.551170277		-0.493920972
F		-1.212813273		-3.614203205		-1.089034069
F		1.891721096		-1.416085612		1.21647766
F		0.839082164		-1.499326682		-1.488812805
F		0.093133011		-1.192198581		3.442327361
F		0.391556359		1.128396646		1.211232772
F		-0.964109169		-1.461538421		0.787343972
