12
-187.24475565
Al		0.336325563		-0.61184583		1.744440917
Al		2.355675011		-1.77624171		-0.512245618
Al		-0.884860598		-1.830519276		-1.003217704
F		3.478001463		-0.477866921		-1.094102531
F		-1.828882099		-0.563418257		-1.893168637
F		2.748305995		-3.550425517		-0.494058064
F		-1.211913653		-3.614267473		-1.090354829
F		1.891387836		-1.416159364		1.216854744
F		0.839566964		-1.498715602		-1.488782081
F		0.092081095		-1.193521057		3.442264633
F		0.390574411		1.127945998		1.212075552
F		-0.964310589		-1.462195561		0.786867516
