12
-187.24475565
Al		0.335702049		-0.612433209		1.744629692
Al		2.355917432		-1.775655672		-0.511907749
Al		-0.884484455		-1.830524973		-1.00374559
F		3.478087842		-0.477001427		-1.093227062
F		-1.82861197		-0.563365868		-1.893482794
F		2.748843586		-3.549866947		-0.494160883
F		-1.211238938		-3.614315674		-1.091345399
F		1.891137891		-1.416214678		1.217137557
F		0.839930564		-1.498257292		-1.488759038
F		0.091292158		-1.194512914		3.442217587
F		0.38983795		1.127608012		1.212707637
F		-0.964461654		-1.462688416		0.786510174
