12
-187.24475565
Al		0.335494211		-0.612629002		1.744692617
Al		2.355998239		-1.775460326		-0.511795126
Al		-0.884359074		-1.830526872		-1.003921552
F		3.478116635		-0.476712929		-1.092935239
F		-1.828521927		-0.563348405		-1.893587513
F		2.749022783		-3.549680757		-0.494195156
F		-1.211014033		-3.614331741		-1.091675589
F		1.891054576		-1.416233116		1.217231828
F		0.840051764		-1.498104522		-1.488751357
F		0.091029179		-1.194843533		3.442201905
F		0.389592463		1.12749535		1.212918332
F		-0.964512009		-1.462852701		0.78639106
