12
-187.24475565
Al		0.333207993		-0.614782725		1.745384792
Al		2.356887116		-1.77331152		-0.510556273
Al		-0.882979883		-1.830547761		-1.005857134
F		3.478433358		-0.473539451		-1.089725186
F		-1.827531454		-0.563156312		-1.894739422
F		2.75099395		-3.547632667		-0.494572159
F		-1.208540078		-3.614508478		-1.095307679
F		1.890138111		-1.416435934		1.218268809
F		0.841384964		-1.496424052		-1.488666866
F		0.08813641		-1.198480342		3.442029403
F		0.386892106		1.126256068		1.215235977
F		-0.965065914		-1.464659836		0.785080806
