12
-187.24475565
Al		0.332584479		-0.615370104		1.745573567
Al		2.357129537		-1.772725482		-0.510218404
Al		-0.88260374		-1.830553458		-1.00638502
F		3.478519737		-0.472673957		-1.088849717
F		-1.827261325		-0.563103923		-1.895053579
F		2.751531541		-3.547074097		-0.494674978
F		-1.207865363		-3.614556679		-1.096298249
F		1.889888166		-1.416491248		1.218551622
F		0.841748564		-1.495965742		-1.488643823
F		0.087347473		-1.199472199		3.441982357
F		0.386155645		1.125918082		1.215868062
F		-0.965216979		-1.465152691		0.784723464
