12
-187.24475565
Al		0.332168803		-0.61576169		1.745699417
Al		2.357291151		-1.77233479		-0.509993158
Al		-0.882352978		-1.830557256		-1.006736944
F		3.478577323		-0.472096961		-1.088266071
F		-1.827081239		-0.563068997		-1.895263017
F		2.751889935		-3.546701717		-0.494743524
F		-1.207415553		-3.614588813		-1.096958629
F		1.889721536		-1.416528124		1.218740164
F		0.841990964		-1.495660202		-1.488628461
F		0.086821515		-1.200133437		3.441950993
F		0.385664671		1.125692758		1.216289452
F		-0.965317689		-1.465481261		0.784485236
