12
-187.24475565
Al		0.347756653		-0.601077215		1.740980042
Al		2.351230626		-1.78698574		-0.518439883
Al		-0.891756553		-1.830414831		-0.993539794
F		3.476417848		-0.493734311		-1.110152796
F		-1.833834464		-0.564378722		-1.887409092
F		2.73845016		-3.560665967		-0.492173049
F		-1.224283428		-3.613383788		-1.072194379
F		1.895970161		-1.415145274		1.211669839
F		0.832900964		-1.507117952		-1.489204536
F		0.10654494		-1.175337012		3.443127143
F		0.404076196		1.134142408		1.200487327
F		-0.961541064		-1.453159886		0.793418786
