12
-187.24475565
Al		0.330506099		-0.617328034		1.746202817
Al		2.357937607		-1.770772022		-0.509092174
Al		-0.88134993		-1.830572448		-1.00814464
F		3.478807667		-0.469788977		-1.085931487
F		-1.826360895		-0.562929293		-1.896100769
F		2.753323511		-3.545212197		-0.495017708
F		-1.205616313		-3.614717349		-1.099600149
F		1.889055016		-1.416675628		1.219494332
F		0.842960564		-1.494438042		-1.488567013
F		0.084717683		-1.202778389		3.441825537
F		0.383700775		1.124791462		1.217975012
F		-0.965720529		-1.466795541		0.783532324
