12
-187.24475565
Al		0.330298261		-0.617523827		1.746265742
Al		2.358018414		-1.770576676		-0.508979551
Al		-0.881224549		-1.830574347		-1.008320602
F		3.47883646		-0.469500479		-1.085639664
F		-1.826270852		-0.56291183		-1.896205488
F		2.753502708		-3.545026007		-0.495051981
F		-1.205391408		-3.614733416		-1.099930339
F		1.888971701		-1.416694066		1.219588603
F		0.843081764		-1.494285272		-1.488559332
F		0.084454704		-1.203109008		3.441809855
F		0.383455288		1.1246788		1.218185707
F		-0.965770884		-1.466959826		0.78341321
