12
-187.24475565
Al		0.329882585		-0.617915413		1.746391592
Al		2.358180028		-1.770185984		-0.508754305
Al		-0.880973787		-1.830578145		-1.008672526
F		3.478894046		-0.468923483		-1.085056018
F		-1.826090766		-0.562876904		-1.896414926
F		2.753861102		-3.544653627		-0.495120527
F		-1.204941598		-3.61476555		-1.100590719
F		1.888805071		-1.416730942		1.219777145
F		0.843324164		-1.493979732		-1.48854397
F		0.083928746		-1.203770246		3.441778491
F		0.382964314		1.124453476		1.218607097
F		-0.965871594		-1.467288396		0.783174982
