12
-187.24475565
Al		0.329674747		-0.618111206		1.746454517
Al		2.358260835		-1.769990638		-0.508641682
Al		-0.880848406		-1.830580044		-1.008848488
F		3.478922839		-0.468634985		-1.084764195
F		-1.826000723		-0.562859441		-1.896519645
F		2.754040299		-3.544467437		-0.4951548
F		-1.204716693		-3.614781617		-1.100920909
F		1.888721756		-1.41674938		1.219871416
F		0.843445364		-1.493826962		-1.488536289
F		0.083665767		-1.204100865		3.441762809
F		0.382718827		1.124340814		1.218817792
F		-0.965921949		-1.467452681		0.783055868
