12
-187.24475565
Al		0.329259071		-0.618502792		1.746580367
Al		2.358422449		-1.769599946		-0.508416436
Al		-0.880597644		-1.830583842		-1.009200412
F		3.478980425		-0.468057989		-1.084180549
F		-1.825820637		-0.562824515		-1.896729083
F		2.754398693		-3.544095057		-0.495223346
F		-1.204266883		-3.614813751		-1.101581289
F		1.888555126		-1.416786256		1.220059958
F		0.843687764		-1.493521422		-1.488520927
F		0.083139809		-1.204762103		3.441731445
F		0.382227853		1.12411549		1.219239182
F		-0.966022659		-1.467781251		0.78281764
