12
-187.24475565
Al		0.329051233		-0.618698585		1.746643292
Al		2.358503256		-1.7694046		-0.508303813
Al		-0.880472263		-1.830585741		-1.009376374
F		3.479009218		-0.467769491		-1.083888726
F		-1.825730594		-0.562807052		-1.896833802
F		2.75457789		-3.543908867		-0.495257619
F		-1.204041978		-3.614829818		-1.101911479
F		1.888471811		-1.416804694		1.220154229
F		0.843808964		-1.493368652		-1.488513246
F		0.08287683		-1.205092722		3.441715763
F		0.381982366		1.124002828		1.219449877
F		-0.966073014		-1.467945536		0.782698526
