12
-186.35103317
Al		-1.709265261		2.55602062		-1.238696491
Al		-0.621645555		-0.024387994		-2.252551374
Al		-2.113624576		-0.327953718		-0.615389637
F		-0.767166341		3.672250236		-0.173169457
F		-3.027905647		3.198474593		-2.321275792
F		-1.38030788		-2.065344627		-1.795813761
F		-2.614229962		1.504458483		0.197694362
F		-3.121220963		-1.181183032		0.468239853
F		0.481905598		-0.448072941		-3.485502504
F		-0.213780925		1.992866114		-2.436339431
F		-2.469118157		0.497149951		-2.312926628
F		-0.271171768		0.195806039		-0.365768208
