12
-186.35103317
Al		-1.689140261		2.56381582		-1.218911691
Al		-0.410977755		0.033679806		-2.473933374
Al		-2.317484176		-0.354227518		-0.381907437
F		-0.744454141		3.703685836		-0.146642257
F		-3.002938047		3.146715193		-2.308119992
F		-1.37324628		-1.154538227		-1.620494561
F		-2.408324962		1.376597883		-0.139338838
F		-3.415365163		-1.465615432		0.781285453
F		0.807248798		-0.606460541		-3.852225504
F		-0.497497925		1.765384314		-2.236105831
F		-2.435924157		0.444001751		-2.292530028
F		-0.344589168		0.109456839		-0.448686008
