12
-186.35103317
Al		-1.697765189		2.560475085		-1.227390806
Al		-0.50126397		0.008793604		-2.379055356
Al		-2.230115786		-0.342967312		-0.481971249
F		-0.75418788		3.690213511		-0.158010973
F		-3.01363837		3.168897866		-2.313758119
F		-1.376272688		-1.544883837		-1.695631354
F		-2.49656988		1.43139531		0.005103985
F		-3.28930353		-1.343715746		0.647122964
F		0.66781589		-0.53858006		-3.6950586
F		-0.375904893		1.862876522		-2.321920122
F		-2.450149957		0.466779551		-2.301271428
F		-0.313124563		0.14646358		-0.413149788
