12
-186.35103317
Al		-1.703515189		2.558247885		-1.233043606
Al		-0.56145477		-0.007797196		-2.315803356
Al		-2.171870186		-0.335460512		-0.548680449
F		-0.76067708		3.681231911		-0.165590173
F		-3.02077197		3.183686266		-2.317516919
F		-1.378290288		-1.805114237		-1.745722554
F		-2.55539988		1.46792691		0.101399185
F		-3.20526233		-1.262449346		0.557681364
F		0.57486069		-0.49332646		-3.5902806
F		-0.294842893		1.927871322		-2.379129722
F		-2.459634357		0.481964751		-2.307099028
F		-0.292148163		0.17113478		-0.389458988
