12
-186.35103317
Al		-1.694890261		2.56158862		-1.224564491
Al		-0.471168555		0.017089006		-2.410681374
Al		-2.259238576		-0.346720718		-0.448616637
F		-0.750943341		3.694704236		-0.154221457
F		-3.010071647		3.161503593		-2.311878792
F		-1.37526388		-1.414768627		-1.670585761
F		-2.467154962		1.413129483		-0.043043638
F		-3.331323963		-1.384349032		0.691843853
F		0.714293598		-0.561206941		-3.747447504
F		-0.416435925		1.830379114		-2.293315431
F		-2.445408157		0.459186951		-2.298357628
F		-0.323612768		0.134128039		-0.424995208
