12
-186.35103317
Al		-1.692015261		2.56270222		-1.221738091
Al		-0.441073155		0.025384406		-2.442307374
Al		-2.288361376		-0.350474118		-0.415262037
F		-0.747698741		3.699195036		-0.150431857
F		-3.006504847		3.154109393		-2.309999392
F		-1.37425508		-1.284653427		-1.645540161
F		-2.437739962		1.394863683		-0.091191238
F		-3.373344563		-1.424982232		0.736564653
F		0.760771198		-0.583833741		-3.799836504
F		-0.456966925		1.797881714		-2.264710631
F		-2.440666157		0.451594351		-2.295443828
F		-0.334100968		0.121792439		-0.436840608
