12
-186.35103317
Al		-1.706390261		2.55713422		-1.235870091
Al		-0.591550155		-0.016092594		-2.284177374
Al		-2.142747376		-0.331707118		-0.582035037
F		-0.763921741		3.676741036		-0.169379857
F		-3.024338847		3.191080393		-2.319396392
F		-1.37929908		-1.935229427		-1.770768161
F		-2.584814962		1.486192683		0.149546762
F		-3.163241563		-1.221816232		0.512960653
F		0.528383198		-0.470699741		-3.537891504
F		-0.254311925		1.960368714		-2.407734631
F		-2.464376157		0.489557351		-2.310012828
F		-0.281659968		0.183470439		-0.377613608
