12
-186.35103317
Al		-1.690577761		2.56325902		-1.220324891
Al		-0.426025455		0.029532106		-2.458120374
Al		-2.302922776		-0.352350818		-0.398584737
F		-0.746076441		3.701440436		-0.148537057
F		-3.004721447		3.150412293		-2.309059692
F		-1.37375068		-1.219595827		-1.633017361
F		-2.423032462		1.385730783		-0.115265038
F		-3.394354863		-1.445298832		0.758925053
F		0.784009998		-0.595147141		-3.826031004
F		-0.477232425		1.781633014		-2.250408231
F		-2.438295157		0.447798051		-2.293986928
F		-0.339345068		0.115624639		-0.442763308
