12
-186.35103317
Al		-1.713577761		2.55435022		-1.242936091
Al		-0.666788655		-0.036831094		-2.205112374
Al		-2.069940376		-0.322323618		-0.665421537
F		-0.772033241		3.665514036		-0.178853857
F		-3.033255847		3.209565893		-2.324094892
F		-1.38182108		-2.260517427		-1.833382161
F		-2.658352462		1.531857183		0.269915762
F		-3.058190063		-1.120233232		0.401158653
F		0.412189198		-0.414132741		-3.406919004
F		-0.152984425		2.041612214		-2.479246631
F		-2.476231157		0.508538851		-2.317297328
F		-0.255439468		0.214309439		-0.348000108
