12
-186.35103317
Al		-1.697765261		2.56047502		-1.227390891
Al		-0.501263955		0.008793606		-2.379055374
Al		-2.230115776		-0.342967318		-0.481971237
F		-0.754187941		3.690213436		-0.158011057
F		-3.013638447		3.168897793		-2.313758192
F		-1.37627268		-1.544883827		-1.695631361
F		-2.496569962		1.431395283		0.005103962
F		-3.289303363		-1.343715832		0.647123053
F		0.667815998		-0.538580141		-3.695058504
F		-0.375904925		1.862876514		-2.321920231
F		-2.450150157		0.466779551		-2.301271428
F		-0.313124568		0.146463639		-0.413149808
