12
-186.35103317
Al		-1.694890189		2.561588685		-1.224564406
Al		-0.47116857		0.017089004		-2.410681356
Al		-2.259238586		-0.346720712		-0.448616649
F		-0.75094328		3.694704311		-0.154221373
F		-3.01007157		3.161503666		-2.311878719
F		-1.375263888		-1.414768637		-1.670585754
F		-2.46715488		1.41312951		-0.043043615
F		-3.33132413		-1.384348946		0.691843764
F		0.71429349		-0.56120686		-3.7474476
F		-0.416435893		1.830379122		-2.293315322
F		-2.445407757		0.459186951		-2.298357628
F		-0.323612763		0.13412798		-0.424995188
