12
-186.35103317
Al		-1.715015261		2.55379342		-1.244349291
Al		-0.681836355		-0.040978794		-2.189299374
Al		-2.055378976		-0.320446918		-0.682098837
F		-0.773655541		3.663268636		-0.180748657
F		-3.035039247		3.213262993		-2.325034592
F		-1.38232548		-2.325575027		-1.845904961
F		-2.673059962		1.540990083		0.293989562
F		-3.037179763		-1.099916632		0.378798253
F		0.388950398		-0.402819341		-3.380724504
F		-0.132718925		2.057860914		-2.493549031
F		-2.478602157		0.512335151		-2.318754228
F		-0.250195368		0.220477239		-0.342077408
