12
-186.35103317
Al		-1.689140189		2.563815885		-1.218911606
Al		-0.41097777		0.033679804		-2.473933356
Al		-2.317484186		-0.354227512		-0.381907449
F		-0.74445408		3.703685911		-0.146642173
F		-3.00293797		3.146715266		-2.308119919
F		-1.373246288		-1.154538237		-1.620494554
F		-2.40832488		1.37659791		-0.139338815
F		-3.41536533		-1.465615346		0.781285364
F		0.80724869		-0.60646046		-3.8522256
F		-0.497497893		1.765384322		-2.236105722
F		-2.435923357		0.444001751		-2.292530028
F		-0.344589163		0.10945678		-0.448685988
