12
-186.35103317
Al		-1.715015189		2.553793485		-1.244349206
Al		-0.68183637		-0.040978796		-2.189299356
Al		-2.055378986		-0.320446912		-0.682098849
F		-0.77365548		3.663268711		-0.180748573
F		-3.03503917		3.213263066		-2.325034519
F		-1.382325488		-2.325575037		-1.845904954
F		-2.67305988		1.54099011		0.293989585
F		-3.03717993		-1.099916546		0.378798164
F		0.38895029		-0.40281926		-3.3807246
F		-0.132718893		2.057860922		-2.493548922
F		-2.478603157		0.512335151		-2.318754228
F		-0.250195363		0.22047718		-0.342077388
