12
-186.35103317
Al		-1.709265189		2.556020685		-1.238696406
Al		-0.62164557		-0.024387996		-2.252551356
Al		-2.113624586		-0.327953712		-0.615389649
F		-0.76716628		3.672250311		-0.173169373
F		-3.02790557		3.198474666		-2.321275719
F		-1.380307888		-2.065344637		-1.795813754
F		-2.61422988		1.50445851		0.197694385
F		-3.12122113		-1.181182946		0.468239764
F		0.48190549		-0.44807286		-3.4855026
F		-0.213780893		1.992866122		-2.436339322
F		-2.469118757		0.497149951		-2.312926628
F		-0.271171763		0.19580598		-0.365768188
