12
-186.35103317
Al		-1.692015189		2.562702285		-1.221738006
Al		-0.44107317		0.025384404		-2.442307356
Al		-2.288361386		-0.350474112		-0.415262049
F		-0.74769868		3.699195111		-0.150431773
F		-3.00650477		3.154109466		-2.309999319
F		-1.374255088		-1.284653437		-1.645540154
F		-2.43773988		1.39486371		-0.091191215
F		-3.37334473		-1.424982146		0.736564564
F		0.76077109		-0.58383366		-3.7998366
F		-0.456966893		1.797881722		-2.264710522
F		-2.440665557		0.451594351		-2.295443828
F		-0.334100963		0.12179238		-0.436840588
