12
-186.35103317
Al		-1.715015189		2.553793485		-1.244349206
Al		-0.68183637		-0.040978796		-2.189299356
Al		-2.055378986		-0.320446912		-0.682098849
F		-0.77365548		3.663268711		-0.180748573
F		-3.03503917		3.213263066		-2.325034519
F		-1.382325488		-2.325575037		-1.845904954
F		-2.67305988		1.54099011		0.293989585
F		-3.03717993		-1.099916546		0.378798164
F		0.38895029		-0.40281926		-3.3807246
F		-0.132718893		2.057860922		-2.493548922
F		-2.478603157		0.512335151		-2.318754228
F		-0.250195363		0.22047718		-0.342077388
12
-186.35103317
Al		-1.712140189		2.554907085		-1.241522806
Al		-0.65174097		-0.032683396		-2.220925356
Al		-2.084501786		-0.324200312		-0.648744249
F		-0.77041088		3.667759511		-0.176958973
F		-3.03147237		3.205868866		-2.323155119
F		-1.381316688		-2.195459837		-1.820859354
F		-2.64364488		1.52272431		0.245841985
F		-3.07920053		-1.140549746		0.423518964
F		0.43542789		-0.42544606		-3.4331136
F		-0.173249893		2.025363522		-2.464944122
F		-2.473860957		0.504742551		-2.315840428
F		-0.260683563		0.20814158		-0.353922788
12
-186.35103317
Al		-1.709265189		2.556020685		-1.238696406
Al		-0.62164557		-0.024387996		-2.252551356
Al		-2.113624586		-0.327953712		-0.615389649
F		-0.76716628		3.672250311		-0.173169373
F		-3.02790557		3.198474666		-2.321275719
F		-1.380307888		-2.065344637		-1.795813754
F		-2.61422988		1.50445851		0.197694385
F		-3.12122113		-1.181182946		0.468239764
F		0.48190549		-0.44807286		-3.4855026
F		-0.213780893		1.992866122		-2.436339322
F		-2.469118757		0.497149951		-2.312926628
F		-0.271171763		0.19580598		-0.365768188
12
-186.35103317
Al		-1.706390189		2.557134285		-1.235870006
Al		-0.59155017		-0.016092596		-2.284177356
Al		-2.142747386		-0.331707112		-0.582035049
F		-0.76392168		3.676741111		-0.169379773
F		-3.02433877		3.191080466		-2.319396319
F		-1.379299088		-1.935229437		-1.770768154
F		-2.58481488		1.48619271		0.149546785
F		-3.16324173		-1.221816146		0.512960564
F		0.52838309		-0.47069966		-3.5378916
F		-0.254311893		1.960368722		-2.407734522
F		-2.464376557		0.489557351		-2.310012828
F		-0.281659963		0.18347038		-0.377613588
12
-186.35103317
Al		-1.703515189		2.558247885		-1.233043606
Al		-0.56145477		-0.007797196		-2.315803356
Al		-2.171870186		-0.335460512		-0.548680449
F		-0.76067708		3.681231911		-0.165590173
F		-3.02077197		3.183686266		-2.317516919
F		-1.378290288		-1.805114237		-1.745722554
F		-2.55539988		1.46792691		0.101399185
F		-3.20526233		-1.262449346		0.557681364
F		0.57486069		-0.49332646		-3.5902806
F		-0.294842893		1.927871322		-2.379129722
F		-2.459634357		0.481964751		-2.307099028
F		-0.292148163		0.17113478		-0.389458988
12
-186.35103317
Al		-1.700640189		2.559361485		-1.230217206
Al		-0.53135937		0.000498204		-2.347429356
Al		-2.200992986		-0.339213912		-0.515325849
F		-0.75743248		3.685722711		-0.161800573
F		-3.01720517		3.176292066		-2.315637519
F		-1.377281488		-1.674999037		-1.720676954
F		-2.52598488		1.44966111		0.053251585
F		-3.24728293		-1.303082546		0.602402164
F		0.62133829		-0.51595326		-3.6426696
F		-0.335373893		1.895373922		-2.350524922
F		-2.454892157		0.474372151		-2.304185228
F		-0.302636363		0.15879918		-0.401304388
12
-186.35103317
Al		-1.697765189		2.560475085		-1.227390806
Al		-0.50126397		0.008793604		-2.379055356
Al		-2.230115786		-0.342967312		-0.481971249
F		-0.75418788		3.690213511		-0.158010973
F		-3.01363837		3.168897866		-2.313758119
F		-1.376272688		-1.544883837		-1.695631354
F		-2.49656988		1.43139531		0.005103985
F		-3.28930353		-1.343715746		0.647122964
F		0.66781589		-0.53858006		-3.6950586
F		-0.375904893		1.862876522		-2.321920122
F		-2.450149957		0.466779551		-2.301271428
F		-0.313124563		0.14646358		-0.413149788
12
-186.35103317
Al		-1.694890189		2.561588685		-1.224564406
Al		-0.47116857		0.017089004		-2.410681356
Al		-2.259238586		-0.346720712		-0.448616649
F		-0.75094328		3.694704311		-0.154221373
F		-3.01007157		3.161503666		-2.311878719
F		-1.375263888		-1.414768637		-1.670585754
F		-2.46715488		1.41312951		-0.043043615
F		-3.33132413		-1.384348946		0.691843764
F		0.71429349		-0.56120686		-3.7474476
F		-0.416435893		1.830379122		-2.293315322
F		-2.445407757		0.459186951		-2.298357628
F		-0.323612763		0.13412798		-0.424995188
12
-186.35103317
Al		-1.692015189		2.562702285		-1.221738006
Al		-0.44107317		0.025384404		-2.442307356
Al		-2.288361386		-0.350474112		-0.415262049
F		-0.74769868		3.699195111		-0.150431773
F		-3.00650477		3.154109466		-2.309999319
F		-1.374255088		-1.284653437		-1.645540154
F		-2.43773988		1.39486371		-0.091191215
F		-3.37334473		-1.424982146		0.736564564
F		0.76077109		-0.58383366		-3.7998366
F		-0.456966893		1.797881722		-2.264710522
F		-2.440665557		0.451594351		-2.295443828
F		-0.334100963		0.12179238		-0.436840588
12
-186.35103317
Al		-1.689140189		2.563815885		-1.218911606
Al		-0.41097777		0.033679804		-2.473933356
Al		-2.317484186		-0.354227512		-0.381907449
F		-0.74445408		3.703685911		-0.146642173
F		-3.00293797		3.146715266		-2.308119919
F		-1.373246288		-1.154538237		-1.620494554
F		-2.40832488		1.37659791		-0.139338815
F		-3.41536533		-1.465615346		0.781285364
F		0.80724869		-0.60646046		-3.8522256
F		-0.497497893		1.765384322		-2.236105722
F		-2.435923357		0.444001751		-2.292530028
F		-0.344589163		0.10945678		-0.448685988
