12
Properties=species:S:1:pos:R:3:forces:R:3 energy=-186.68111045 pbc="F F F"
Al    1.12509868    0.25496291699999996    2.486075873    0.057869    0.80901    -1.675462
Al    0.8274908000000001    1.6860362    0.01317199999999999    -2.089771    0.2982    -4.611256
Al    -0.377934962    0.86432405    -2.3424773730000004    -0.882881    -0.232675    -1.156836
F    -1.6219723719999999    -0.344881253    -2.2260430060000003    1.267512    1.136319    -0.109269
F    2.1888178529999998    -0.494351353    0.6782948520000001    0.253706    -0.697026    1.091201
F    0.048289739    1.7847746899999999    -3.7631271330000002    -0.333    -0.840381    1.224199
F    0.06680998999999999    1.741214153    -0.606571249    1.367948    -0.318857    1.042927
F    2.604530757    2.402009112    -0.326645443    0.104669    0.054633    0.077469
F    1.294198239    -0.233124995    -1.929490654    0.467434    0.731403    1.518953
F    0.550365917    1.375441229    1.650011239    -0.117417    -0.264192    1.287381
F    2.597085569    0.586677676    3.645171237    0.970087    0.401246    0.949886
F    0.004723874999999999    -1.261915352    2.813409871    -1.066156    -1.077681    0.360806
