      12
SCF Done            -186.68111045
Al            1.284262680         0.069332917         2.401939873
Al            1.236475800         1.209044200        -0.203024000
Al           -0.347086962         0.828347050        -2.358784373
F            -1.630786372        -0.334601253        -2.221384006
F             2.074121853        -0.381137353         0.791730852
F             0.039856739         1.794609690        -3.758669133
F            -0.324299010         1.925934153        -0.736879249
F             2.588593757         2.420594112        -0.318221443
F             1.277934239         0.057271005        -1.583838654
F             0.432682917         1.533246229         1.659414239
F             2.577285569         0.609770676         3.655638237
F            -0.016327125        -1.237364352         2.824537871
