12
Properties=species:S:1:pos:R:3:forces:R:3 energy=-186.45204213 pbc="F F F"
Al    0.374364593    -0.619568158    1.732857339    -0.851286    0.064277    -0.492036
Al    2.547348965    -1.678234472    -0.277372697    0.060633    0.618977    1.875608
Al    -0.586251981    -2.086201158    -1.114537943    2.003612    -0.351904    -0.82411
F    3.368834307    -0.459500193    -1.4531291800000001    0.208871    0.450183    -1.02087
F    -1.7749976539999999    -0.600203288    -1.338522197    -0.895543    0.713975    0.350441
F    2.5036183949999997    -3.525862094    -0.643338443    -0.244297    -0.776737    -0.598499
F    -1.5599405659999999    -3.707825602    -1.08648872    -0.649103    -0.599767    0.3989
F    1.911438797    -1.781049793    1.522576202    0.078071    -0.365132    0.285599
F    1.081110964    -1.416116482    -1.4060010649999999    0.012138    -0.074428    -0.038944
F    0.099556952    -1.1909289630000002    3.465157689    0.358145    -0.119091    0.293592
F    0.02574897100000001    1.117209299    1.031570536    -0.067906    0.071197    -0.053342
F    -0.850128068    -0.8872571830000001    0.37234701400000003    -0.013335    0.368452    -0.17634
