12
Properties=species:S:1:pos:R:3:forces:R:3 energy=-177.83098818 pbc="F F F"
Al    0.26020097200000003    -2.383044611    -1.840613861    1.497091    5.062299    1.279917
Al    2.30159313    -0.19697925600000002    -0.644269624    -0.069272    0.599961    0.037854
Al    -0.14464320599999997    0.737954903    -1.664221083    0.657882    0.630556    0.376937
F    4.218696288    -0.144298616    0.24645497700000002    2.354927    0.326625    1.124628
F    -0.15346697399999998    -3.934991893    -2.2120946360000002    1.395741    5.16938    1.2456
F    1.707877638    -2.104013276    -2.334153589    -6.534212    -2.865624    0.295199
F    1.506746495    0.7541223389999999    -2.8767134199999997    1.211389    1.522585    -2.765133
F    -1.722284422    1.809435531    -2.267490911    -1.357543    1.326166    -0.472073
F    -0.9118424860000001    -1.587200852    -1.178625769    4.48642    -4.860616    -2.367099
F    -0.076484974    -1.3765205090000001    -2.989020181    1.573233    -5.595325    3.946383
F    0.019629995999999983    0.37906599799999996    0.346176998    -1.423159    0.858143    2.944474
F    0.8094491340000001    -2.3306006100000003    -0.387073173    -3.792497    -2.17415    -5.646687
