      12
SCF Done            -177.83098818
Al            0.323169972        -2.179326611        -1.787851861
Al            2.097649130        -0.440003256        -0.766656624
Al           -0.317105206         0.421425903        -1.780634083
F             3.815421288        -0.137948616         0.061113977
F            -0.075694974        -3.680619893        -2.146606636
F             1.784372638        -2.052934276        -2.355580589
F             1.611335495         0.773177339        -2.466318420
F            -1.583627422         1.768042531        -2.208327911
F            -0.964572486        -1.593275852        -1.097376769
F            -0.049238974        -1.362426509        -3.081095181
F             0.395038996         0.466422998         0.169648998
F             0.838790134        -2.291413610        -0.306307173
