12
Properties=species:S:1:pos:R:3:forces:R:3 energy=-185.56392976 pbc="F F F"
Al    0.169638372    -2.413010411    -1.658210261    0.119333    0.164431    0.142126
Al    2.0006277299999997    -0.476654256    -0.9028058240000001    0.011525    0.471085    -0.385514
Al    -0.245430806    0.302894703    -1.898878083    0.258712    0.255066    0.586939
F    3.559254488    0.342623784    -0.259125623    0.056015    0.009501    -0.123116
F    -0.29571137399999997    -4.047529693    -2.287959836    -0.007094    -0.001736    0.012632
F    2.216841438    -1.8592036760000001    -2.124029989    0.247755    -0.318951    -0.092519
F    1.4430034950000001    0.740677739    -2.37042222    -0.023814    -0.200468    0.078631
F    -1.3067652220000001    1.847591931    -1.823833511    -0.054227    -0.017061    0.108799
F    -1.3632184859999998    -1.205639852    -1.170666169    -0.494136    -0.191675    -0.014878
F    0.16292482600000002    -1.164723109    -3.184839381    0.368077    -0.005672    -0.394968
F    0.571339396    -0.02353440200000001    -0.082618002    -0.119114    -0.183322    -0.179299
F    0.997314134    -2.27784961    0.021304626999999993    -0.363033    0.018805    0.261166
