      12
SCF Done            -185.56392976
Al            0.269858372        -2.329470411        -1.814852261
Al            2.090156730        -0.526961256        -0.927633824
Al           -0.384966806         0.296553703        -1.694150083
F             3.693356488        -0.162812216        -0.179481623
F            -0.173809374        -4.033916693        -2.214446836
F             2.231164438        -2.002931676        -2.196284989
F             1.523293495         0.685670739        -2.257743220
F            -1.544498222         1.636850931        -2.042706511
F            -1.358059486        -1.328525852        -1.161379169
F             0.143737826        -0.951302109        -3.150907381
F             0.505325396         0.366899598        -0.038163002
F             0.904636134        -1.889566610        -0.068793373
