12
Properties=species:S:1:pos:R:3:forces:R:3 energy=-186.39816852 pbc="F F F"
Al    -0.310617038    1.01447496    -1.702609536    -0.173353    0.400012    0.238467
Al    -0.405111514    1.082586053    1.301076836    -0.042265    -0.103999    -0.051518
Al    -2.902562119    0.47598968900000005    -1.823041542    -0.015723    -0.134733    -0.019137
F    -3.420636461    0.37975540799999996    -3.570516708    0.014567    -0.033369    -0.002574
F    -1.308649757    -0.611844301    -1.762182445    0.05083    -0.057037    -0.184572
F    -1.8576524870000002    2.1078438029999997    -1.896062583    0.008186    0.053642    0.167777
F    -1.8476221249999998    0.717136739    0.220097224    -0.028594    -0.30442    0.035563
F    0.781520327    1.442475643    -0.270631911    -0.006428    0.371163    -0.001207
F    -0.561527575    2.753618397    2.141128147    0.295255    0.194881    -0.150258
F    0.08718571500000002    -0.49786165800000004    2.089621445    -0.226847    -0.178773    0.118703
F    -4.119149292    0.23753307    -0.4937119649999999    -0.020009    0.036379    0.006027
F    0.23535682699999994    1.1097803370000001    -3.610237229    0.144382    -0.243748    -0.157271
