      12
SCF Done            -168.30533846
Al           -0.381752038         1.115315960        -1.821037536
Al           -0.444829381         1.060214091         1.281933801
Al           -3.012912103         0.426117678        -1.858194809
F            -3.527709455         0.296245336        -3.599374961
F            -1.333165758        -0.522519304        -1.928970538
F            -2.002375493         2.087237789        -1.806882761
F            -2.003358977         0.572743855         0.458452109
F             0.554706416         1.462938097        -0.298451975
F            -0.155931381         2.748992404         1.911292171
F             0.229240808        -0.403027671         2.130141358
F            -4.280216167         0.227374126        -0.581108113
F             0.771229419         1.134375703        -3.231769244
