12
Properties=species:S:1:pos:R:3:forces:R:3 energy=-185.75626403 pbc="F F F"
Al    -0.020564727999999977    -2.2908907110000003    -1.879087461    -0.215716    -0.292363    0.309354
Al    1.86632383    -0.468527856    -1.141545924    0.274784    0.231086    -0.068899
Al    -0.49902950599999996    0.37968760300000004    -2.148506183    0.039001    0.326405    -0.19438
F    3.5236359879999997    -0.10725441600000002    -0.399163523    0.032639    0.012987    0.023514
F    -0.499337774    -4.0231866929999995    -2.086764236    -0.043634    -0.170308    -0.040319
F    1.859423238    -1.903472576    -2.441928189    0.199558    -0.059138    -0.186322
F    1.391743495    0.590787839    -2.64974092    -0.027945    -0.02397    0.026004
F    -1.576526322    1.721739131    -2.565410811    -0.031799    0.042326    -0.003021
F    -1.320563786    -1.100472252    -1.1005941689999998    -0.036751    -0.13578    0.090283
F    -0.354901674    -1.109383709    -3.382442181    -0.015964    0.029085    -0.271752
F    0.42608139600000006    0.599698598    -0.367892902    -0.059377    0.145967    0.272816
F    0.893761134    -1.89456181    -0.160079473    -0.114795    -0.106297    0.042723
