      12
SCF Done            -185.75626403
Al            0.188875272        -2.350939711        -1.634919461
Al            2.075763830        -0.528576856        -0.897377924
Al           -0.289589506         0.319638603        -1.904338183
F             3.699394988        -0.157646416        -0.194262523
F            -0.323578774        -4.073578693        -1.881863236
F             2.035182238        -1.953864576        -2.237027189
F             1.567502495         0.540395839        -2.444839920
F            -1.400767322         1.671347131        -2.360509811
F            -1.144804786        -1.150864252        -0.895693169
F            -0.179142674        -1.159775709        -3.177541181
F             0.601840396         0.549306598        -0.162991902
F             1.069520134        -1.944953810         0.044821527
