      12
SCF Done            -167.90259180
Al           -0.051568013         1.616568772         2.177193420
Al            2.532497496         2.569998425         1.719581375
Al            1.317921084         2.717527784        -0.660861454
F             1.031248778         3.087524536         2.797155063
F            -1.516594683         2.719377522         2.193769186
F            -0.537332071        -0.032606666         2.767649830
F             1.824907953         0.829495193         1.964398865
F             2.928372145         1.873920053        -0.088341016
F             1.111476809         3.025855733        -2.429310212
F             1.742820894         4.042449187         0.623076867
F             4.046018368         3.152850977         2.535672780
F             0.018203809         1.763886010         0.216186693
