      12
SCF Done            -186.35263929
Al           -0.051568057         1.616568796         2.177193321
Al            2.532497496         2.569998425         1.719581375
Al            1.317921058         2.717527781        -0.660861453
F             1.031248752         3.087524519         2.797155032
F            -1.516594747         2.719377543         2.193769095
F            -0.537332060        -0.032606618         2.767649860
F             1.824907969         0.829495185         1.964398834
F             2.928372142         1.873920072        -0.088341054
F             1.111476714         3.025855752        -2.429310204
F             1.742820868         4.042449187         0.623076865
F             4.046018366         3.152851011         2.535672768
F             0.018203800         1.763885968         0.216186705
