      12
SCF Done            -166.44268107
Al           -1.728028189         2.579927885        -1.251362806
Al           -0.515203370        -0.016712196        -2.322170956
Al           -2.171420986        -0.353694712        -0.504788249
F            -0.987966880         4.004981111        -0.312693373
F            -3.081549170         2.969942466        -2.412537519
F            -1.583515888        -1.663789437        -1.906544154
F            -2.270786480         1.447537110         0.190585185
F            -3.299918130        -1.266605746         0.579229364
F             0.586325490        -0.475890860        -3.685180000
F            -0.172867493         1.874390722        -2.111479322
F            -2.400594557         0.632232951        -2.225432428
F            -0.207732363        -0.163353620        -0.374550788
