      12
SCF Done            -186.15341506
Al           -1.728028261         2.579927820        -1.251362891
Al           -0.515203355        -0.016712194        -2.322170174
Al           -2.171420976        -0.353694718        -0.504788237
F            -0.987966941         4.004981036        -0.312693457
F            -3.081549247         2.969942393        -2.412537592
F            -1.583515880        -1.663789427        -1.906544161
F            -2.270786562         1.447537083         0.190584362
F            -3.299917963        -1.266605832         0.579229453
F             0.586325598        -0.475890941        -3.685179904
F            -0.172867525         1.874390714        -2.111479431
F            -2.400594557         0.632232951        -2.225432428
F            -0.207732368        -0.163353561        -0.374550808
