12
-185.77729729
Al		0.313465372		-2.318473011		-1.909357061
Al		2.01682473		-0.545455656		-0.768707624
Al		-0.355241206		0.304050703		-1.758570883
F		3.645442888		-0.174896416		-0.075642823
F		-0.209965974		-4.043035493		-2.136088436
F		2.134858438		-1.799073476		-2.300639789
F		1.503043895		0.634372939		-2.22283522
F		-1.460428022		1.658053931		-2.224904311
F		-1.119210086		-1.296665852		-1.014042169
F		-0.120257974		-0.989504109		-3.243747581
F		0.487786196		0.408666998		0.008825798
F		1.063877334		-2.07755241		-0.100832173
