12
-185.77729729
Al		0.446242772		-2.284986411		-2.197113761
Al		1.95425733		-0.561235056		-0.633110624
Al		-0.425451206		0.286343503		-1.606411183
F		3.716582488		-0.156954716		-0.229817123
F		-0.360934974		-4.081110593		-1.808907736
F		2.253273238		-1.754554176		-2.345114989
F		1.410498295		0.557928039		-2.07719602
F		-1.380598622		1.678187331		-2.397910711
F		-1.037368186		-1.372664852		-1.078065569
F		-0.132164974		-0.895867209		-3.331287481
F		0.431919896		0.447681498		0.184826098
F		1.023939534		-2.10227921		-0.226433173
