12
-185.77729729
Al		0.332433572		-2.313689211		-1.950465161
Al		2.00788653		-0.547709856		-0.749336624
Al		-0.365271206		0.301521103		-1.736833783
F		3.655605688		-0.172333316		-0.097667723
F		-0.231532974		-4.048474793		-2.089348336
F		2.151774838		-1.792713576		-2.306993389
F		1.489823095		0.623452239		-2.20202962
F		-1.449023822		1.660930131		-2.249619511
F		-1.107518386		-1.307522852		-1.023188369
F		-0.121958974		-0.976127409		-3.256253281
F		0.479805296		0.414240498		0.033968698
F		1.058171934		-2.08108481		-0.118775173
