12
-185.77729729
Al		0.256560772		-2.332824411		-1.786032761
Al		2.04363933		-0.538693056		-0.826820624
Al		-0.325151206		0.311639503		-1.823782183
F		3.614954488		-0.182585716		-0.009568123
F		-0.145264974		-4.026717593		-2.276308736
F		2.084109238		-1.818153176		-2.281578989
F		1.542706295		0.667135039		-2.28525202
F		-1.494640622		1.649425331		-2.150758711
F		-1.154285186		-1.264094852		-0.986603569
F		-0.115154974		-1.029634209		-3.206230481
F		0.511728896		0.391946498		-0.066602902
F		1.080993534		-2.06695521		-0.047003173
