12
-185.77729729
Al		0.351401772		-2.308905411		-1.991573261
Al		1.99894833		-0.549964056		-0.729965624
Al		-0.375301206		0.298991503		-1.715096683
F		3.665768488		-0.169770216		-0.119692623
F		-0.253099974		-4.053914093		-2.042608236
F		2.168691238		-1.786353676		-2.313346989
F		1.476602295		0.612531539		-2.18122402
F		-1.437619622		1.663806331		-2.274334711
F		-1.095826686		-1.318379852		-1.032334569
F		-0.123659974		-0.962750709		-3.268758981
F		0.471824396		0.419813998		0.059111598
F		1.052466534		-2.08461721		-0.136718173
