12
-185.77729729
Al		0.199656172		-2.347175811		-1.662708461
Al		2.07045393		-0.531930456		-0.884933624
Al		-0.295061206		0.319228303		-1.888993483
F		3.584466088		-0.190275016		0.056506577
F		-0.080563974		-4.010399693		-2.416529036
F		2.033360038		-1.837232876		-2.262518189
F		1.582368695		0.699897139		-2.34766882
F		-1.528853222		1.640796731		-2.076613111
F		-1.189360286		-1.231523852		-0.959164969
F		-0.110051974		-1.069764309		-3.168713381
F		0.535671596		0.375225998		-0.142031602
F		1.098109734		-2.05635801		0.006825827
