12
-185.77729729
Al		0.218624372		-2.342392011		-1.703816561
Al		2.06151573		-0.534184656		-0.865562624
Al		-0.305091206		0.316698703		-1.867256383
F		3.594628888		-0.187711916		0.034481677
F		-0.102130974		-4.015838993		-2.369788936
F		2.050276438		-1.830872976		-2.268871789
F		1.569147895		0.688976439		-2.32686322
F		-1.517449022		1.643672931		-2.101328311
F		-1.177668586		-1.242380852		-0.968311169
F		-0.111752974		-1.056387609		-3.181219081
F		0.527690696		0.380799498		-0.116888702
F		1.092404334		-2.05989041		-0.011117173
