12
-185.77729729
Al		0.180687972		-2.351959611		-1.621600361
Al		2.07939213		-0.529676256		-0.904304624
Al		-0.285031206		0.321757903		-1.910730583
F		3.574303288		-0.192838116		0.078531477
F		-0.058996974		-4.004960393		-2.463269136
F		2.016443638		-1.843592776		-2.256164589
F		1.595589495		0.710817839		-2.36847442
F		-1.540257422		1.637920531		-2.051897911
F		-1.201051986		-1.220666852		-0.950018769
F		-0.108350974		-1.083141009		-3.156207681
F		0.543652496		0.369652498		-0.167174502
F		1.103815134		-2.05282561		0.024768827
