12
-185.77729729
Al		0.161719772		-2.356743411		-1.580492261
Al		2.08833033		-0.527422056		-0.923675624
Al		-0.275001206		0.324287503		-1.932467683
F		3.564140488		-0.195401216		0.100556377
F		-0.037429974		-3.999521093		-2.510009236
F		1.999527238		-1.849952676		-2.249810989
F		1.608810295		0.721738539		-2.38928002
F		-1.551661622		1.635044331		-2.027182711
F		-1.212743686		-1.209809852		-0.940872569
F		-0.106649974		-1.096517709		-3.143701981
F		0.551633396		0.364078998		-0.192317402
F		1.109520534		-2.04929321		0.042711827
