12
Properties=species:S:1:pos:R:3:forces:R:3 energy=-182.85673016 pbc="F F F"
Al    0.08767034299999998    1.581174196    1.8762055210000002    4.102289    1.692247    -12.804682
Al    2.349723896    2.520822425    1.836249175    0.122307    -0.024707    0.952543
Al    1.483494458    2.691889381    -0.492427453    -1.775113    -1.172095    2.723963
F    1.086422752    3.4137877189999997    3.070162232    0.072277    -0.723328    -0.176627
F    -1.3922553469999999    2.507014743    2.150881095    0.105446    -0.212948    0.49421
F    -0.49204166    0.06996018200000001    2.75851626    0.17236    0.296202    0.496091
F    1.5200291689999998    0.642196985    1.9641066340000002    -3.191135    0.53198    0.657446
F    3.140651942    1.6750268720000001    -0.439668254    -0.589317    0.508866    -0.896863
F    1.144929714    3.003855352    -2.1828990040000003    0.28071    0.101319    0.32167
F    1.5517094679999999    4.397015587    0.428540065    -0.372156    -0.479021    -1.21835
F    3.885533166    3.076117411    2.393764768    0.702586    0.392996    0.36101
F    0.0587148    1.809105968    0.455785905    0.369746    -0.911509    9.089587
