12
Properties=species:S:1:pos:R:3:forces:R:3 energy=-174.07419955 pbc="F F F"
Al    1.30273718    -0.220224883    3.075745973    0.245129    -1.574225    3.936968
Al    1.3868469    1.0156066000000001    0.5082234999999999    -2.884354    -10.695448    18.141175
Al    -0.178514262    0.8677466500000001    -2.126815573    5.842831    1.237715    8.322384
F    -1.8516672719999998    -0.5294748530000001    -2.209281806    -4.284951    -3.571984    -0.225109
F    1.9549580530000001    -0.08158965300000001    0.529317152    -2.856432    8.652285    -4.333899
F    0.093331439    1.94199249    -3.9826822330000002    0.656321    2.643643    -4.591131
F    -0.50988941    1.9516079530000001    -0.928810149    -1.16087    -0.96391    -3.540576
F    2.654051157    2.502227312    -0.374499443    1.044035    1.386767    -1.084599
F    1.1787777389999998    -0.017860795000000002    -1.821459454    -2.551136    0.65754    -2.80566
F    0.5634060169999999    1.541354329    1.264907639    5.217783    -0.764519    -8.602036
F    1.931463769    0.28079087599999997    3.1597408369999997    -5.636214    -2.94557    -4.163449
F    0.6025507750000001    -0.672119852    2.748192971    6.367858    5.937706    -1.054068
