      12
SCF Done            -174.07419955
Al            1.275292180        -0.042798883         2.632368973
Al            1.458170900         1.100137600         0.456651500
Al           -0.193145262         0.869262650        -2.157838573
F            -1.849520272        -0.528735853        -2.206850806
F             2.013910053        -0.221519653         0.594834152
F             0.093346439         1.937893490        -3.973610233
F            -0.515428410         1.962561953        -0.910084149
F             2.584649157         2.422532312        -0.329958443
F             1.194614739        -0.031837795        -1.814033454
F             0.480281017         1.567127329         1.405527639
F             2.393741769         0.530374876         3.483593837
F             0.186533775        -1.035431852         2.762773971
