12
-186.39349496
Al		-0.053984657		1.618816096		2.159402221
Al		2.549266196		2.585181525		1.769886275
Al		1.382259758		2.642508981		-0.642872953
F		1.021286852		3.074561819		2.839023732
F		-1.558256447		2.666314843		2.179795995
F		-0.47304996		-0.044818918		2.75624126
F		1.829468869		0.849868885		1.937527234
F		2.985138842		1.838523172		-0.069275454
F		1.107663214		3.016386252		-2.392080904
F		1.767836368		3.996641887		0.636548165
F		4.130920466		3.107042911		2.463206168
F		0.0103581		1.782544668		0.215434505
