12
-186.39349496
Al		-0.293044657		1.838371096		2.117755221
Al		2.310205196		2.804736525		1.728239275
Al		1.143198758		2.862064981		-0.684519953
F		0.820671852		3.258808819		2.804074732
F		-1.758871447		2.850561843		2.144846995
F		-0.67366496		0.139428082		2.72129126
F		1.628853869		1.034115885		1.902577234
F		2.784523842		2.022770172		-0.104225454
F		0.907048214		3.200633252		-2.427029904
F		1.567221368		4.180888887		0.601599165
F		3.930305466		3.291289911		2.428256168
F		-0.1902569		1.966791668		0.180484505
