12
-186.39349496
Al		0.113357343		1.465127596		2.188555121
Al		2.716608896		2.431493025		1.799039175
Al		1.549602458		2.488819781		-0.613720053
F		1.161717352		2.945588919		2.863488032
F		-1.417825947		2.537341943		2.204260295
F		-0.33261946		-0.173791818		2.78070626
F		1.969899369		0.720895985		1.961992234
F		3.125569342		1.709550272		-0.044810454
F		1.248093714		2.887413352		-2.367616604
F		1.908266868		3.867668987		0.661012465
F		4.271350966		2.978070011		2.487671168
F		0.1507886		1.653571768		0.239899505
