12
-186.39349496
Al		-0.109732613		1.722046772		2.16628602
Al		2.513303696		2.635072225		1.776670775
Al		1.406941684		2.542584584		-0.668980454
F		0.973023378		3.190065736		2.785510863
F		-1.596330283		2.767279922		2.095413586
F		-0.546921871		0.079116534		2.84728463
F		1.780536153		0.907494393		2.026245465
F		2.986781345		1.772945453		-0.012128416
F		1.168139009		2.836380933		-2.440512212
F		1.773650894		3.981502587		0.546670867
F		4.090790168		3.174119177		2.47280598
F		0.005564209		1.75907901		0.213608693
