12
-186.39349496
Al		-0.173514657		1.728593596		2.138578721
Al		2.429735696		2.694959025		1.749062775
Al		1.262729258		2.752286981		-0.663696453
F		0.920979352		3.166685319		2.821549232
F		-1.658563947		2.758438343		2.162321495
F		-0.57335746		0.047304582		2.73876626
F		1.729161369		0.941992385		1.920052234
F		2.884831342		1.930646672		-0.086750454
F		1.007355714		3.108509752		-2.409555404
F		1.667528868		4.088765387		0.619073665
F		4.030612966		3.199166411		2.445731168
F		-0.0899494		1.874668168		0.197959505
