12
-186.39349496
Al		0.001714387		1.437583572		2.12761662
Al		2.555501096		2.537299025		1.738348575
Al		1.236883684		2.969164584		-0.592180654
F		1.071730378		2.850288536		2.960573863
F		-1.533286883		2.478388522		2.378520186
F		-0.358585471		-0.290171266		2.51640023
F		1.881585353		0.770291593		1.703499265
F		2.910817345		2.066953853		-0.224375416
F		0.886258809		3.530885933		-2.283234812
F		1.683084894		4.098976587		0.849009267
F		4.161030968		3.003838577		2.42697418
F		-0.047872391		1.90569541		0.207766493
