12
-186.39349496
Al		-0.269138657		1.816415596		2.121919921
Al		2.334111296		2.782781025		1.732403975
Al		1.167104858		2.840109381		-0.680355253
F		0.840733352		3.240384119		2.807569632
F		-1.738809947		2.832137143		2.148341895
F		-0.65360346		0.121003382		2.72478626
F		1.648915369		1.015691185		1.906072234
F		2.804585342		2.004345472		-0.100730454
F		0.927109714		3.182208552		-2.423535004
F		1.587282868		4.162464187		0.605094065
F		3.950366966		3.272865211		2.431751168
F		-0.1701954		1.948366968		0.183979505
