12
-186.39349496
Al		-0.125702657		1.684682596		2.146908121
Al		2.477547896		2.651048025		1.757392175
Al		1.310541458		2.708375781		-0.655367053
F		0.961102352		3.129835919		2.828539032
F		-1.618440947		2.721588943		2.169311295
F		-0.53323446		0.010455182		2.74575626
F		1.769284369		0.905142985		1.927042234
F		2.924954342		1.893797272		-0.079760454
F		1.047478714		3.071660352		-2.402565604
F		1.707651868		4.051915987		0.626063465
F		4.070735966		3.162317011		2.452721168
F		-0.0498264		1.837818768		0.204949505
