12
-186.39349496
Al		-0.141574613		1.803321972		2.17733442
Al		2.501247296		2.663007425		1.787619975
Al		1.455529684		2.420704584		-0.690923254
F		0.944821378		3.287144936		2.735492863
F		-1.614342683		2.849820322		2.014525986
F		-0.600732271		0.184627334		2.94182303
F		1.751664953		0.946695193		2.118458665
F		3.008485345		1.688943053		0.048513584
F		1.248676209		2.637950933		-2.485448612
F		1.799526894		3.947938587		0.460288467
F		4.070721368		3.222770777		2.48590078
F		0.020831809		1.71718861		0.215277893
