12
-186.39349496
Al		-0.061969613		1.600133972		2.14971342
Al		2.531388296		2.593169425		1.760246975
Al		1.334059684		2.725404584		-0.636066254
F		1.015326378		3.044446936		2.860537863
F		-1.569311683		2.643469322		2.216744986
F		-0.466206271		-0.079149666		2.70547703
F		1.823842953		0.848693193		1.887925665
F		2.954225345		1.898949053		-0.103091416
F		1.047333209		3.134025933		-2.373107612
F		1.734836894		4.031848587		0.676244467
F		4.120893368		3.101141777		2.45316378
F		-0.017337191		1.82191461		0.211104893
