12
-186.39349496
Al		0.137263343		1.443172096		2.192719821
Al		2.740514996		2.409537525		1.803203875
Al		1.573508558		2.466864181		-0.609555353
F		1.181778852		2.927164219		2.866982932
F		-1.397764447		2.518917243		2.207755195
F		-0.31255796		-0.192216518		2.78420126
F		1.989960869		0.702471285		1.965487234
F		3.145630842		1.691125572		-0.041315454
F		1.268155214		2.868988652		-2.364121704
F		1.928328368		3.849244287		0.664507365
F		4.291412466		2.959645311		2.491166168
F		0.1708501		1.635147068		0.243394505
