12
-186.39349496
Al		-0.316950657		1.860326596		2.113590521
Al		2.286299096		2.826692025		1.724074575
Al		1.119292658		2.884020581		-0.688684653
F		0.800610352		3.277233519		2.800579832
F		-1.778932947		2.868986543		2.141352095
F		-0.69372646		0.157852782		2.71779626
F		1.608792369		1.052540585		1.899082234
F		2.764462342		2.041194872		-0.107720454
F		0.886986714		3.219057952		-2.430524804
F		1.547159868		4.199313587		0.598104265
F		3.910243966		3.309714611		2.424761168
F		-0.2103184		1.985216368		0.176989505
12
-186.39349496
Al		-0.293044657		1.838371096		2.117755221
Al		2.310205196		2.804736525		1.728239275
Al		1.143198758		2.862064981		-0.684519953
F		0.820671852		3.258808819		2.804074732
F		-1.758871447		2.850561843		2.144846995
F		-0.67366496		0.139428082		2.72129126
F		1.628853869		1.034115885		1.902577234
F		2.784523842		2.022770172		-0.104225454
F		0.907048214		3.200633252		-2.427029904
F		1.567221368		4.180888887		0.601599165
F		3.930305466		3.291289911		2.428256168
F		-0.1902569		1.966791668		0.180484505
12
-186.39349496
Al		-0.269138657		1.816415596		2.121919921
Al		2.334111296		2.782781025		1.732403975
Al		1.167104858		2.840109381		-0.680355253
F		0.840733352		3.240384119		2.807569632
F		-1.738809947		2.832137143		2.148341895
F		-0.65360346		0.121003382		2.72478626
F		1.648915369		1.015691185		1.906072234
F		2.804585342		2.004345472		-0.100730454
F		0.927109714		3.182208552		-2.423535004
F		1.587282868		4.162464187		0.605094065
F		3.950366966		3.272865211		2.431751168
F		-0.1701954		1.948366968		0.183979505
12
-186.39349496
Al		-0.245232657		1.794460096		2.126084621
Al		2.358017396		2.760825525		1.736568675
Al		1.191010958		2.818153781		-0.676190553
F		0.860794852		3.221959419		2.811064532
F		-1.718748447		2.813712443		2.151836795
F		-0.63354196		0.102578682		2.72828126
F		1.668976869		0.997266485		1.909567234
F		2.824646842		1.985920772		-0.097235454
F		0.947171214		3.163783852		-2.420040104
F		1.607344368		4.144039487		0.608588965
F		3.970428466		3.254440511		2.435246168
F		-0.1501339		1.929942268		0.187474505
12
-186.39349496
Al		-0.221326657		1.772504596		2.130249321
Al		2.381923496		2.738870025		1.740733375
Al		1.214917058		2.796198181		-0.672025853
F		0.880856352		3.203534719		2.814559432
F		-1.698686947		2.795287743		2.155331695
F		-0.61348046		0.084153982		2.73177626
F		1.689038369		0.978841785		1.913062234
F		2.844708342		1.967496072		-0.093740454
F		0.967232714		3.145359152		-2.416545204
F		1.627405868		4.125614787		0.612083865
F		3.990489966		3.236015811		2.438741168
F		-0.1300724		1.911517568		0.190969505
12
-186.39349496
Al		-0.197420657		1.750549096		2.134414021
Al		2.405829596		2.716914525		1.744898075
Al		1.238823158		2.774242581		-0.667861153
F		0.900917852		3.185110019		2.818054332
F		-1.678625447		2.776863043		2.158826595
F		-0.59341896		0.065729282		2.73527126
F		1.709099869		0.960417085		1.916557234
F		2.864769842		1.949071372		-0.090245454
F		0.987294214		3.126934452		-2.413050304
F		1.647467368		4.107190087		0.615578765
F		4.010551466		3.217591111		2.442236168
F		-0.1100109		1.893092868		0.194464505
12
-186.39349496
Al		-0.173514657		1.728593596		2.138578721
Al		2.429735696		2.694959025		1.749062775
Al		1.262729258		2.752286981		-0.663696453
F		0.920979352		3.166685319		2.821549232
F		-1.658563947		2.758438343		2.162321495
F		-0.57335746		0.047304582		2.73876626
F		1.729161369		0.941992385		1.920052234
F		2.884831342		1.930646672		-0.086750454
F		1.007355714		3.108509752		-2.409555404
F		1.667528868		4.088765387		0.619073665
F		4.030612966		3.199166411		2.445731168
F		-0.0899494		1.874668168		0.197959505
12
-186.39349496
Al		-0.149608657		1.706638096		2.142743421
Al		2.453641796		2.673003525		1.753227475
Al		1.286635358		2.730331381		-0.659531753
F		0.941040852		3.148260619		2.825044132
F		-1.638502447		2.740013643		2.165816395
F		-0.55329596		0.028879882		2.74226126
F		1.749222869		0.923567685		1.923547234
F		2.904892842		1.912221972		-0.083255454
F		1.027417214		3.090085052		-2.406060504
F		1.687590368		4.070340687		0.622568565
F		4.050674466		3.180741711		2.449226168
F		-0.0698879		1.856243468		0.201454505
12
-186.39349496
Al		-0.125702657		1.684682596		2.146908121
Al		2.477547896		2.651048025		1.757392175
Al		1.310541458		2.708375781		-0.655367053
F		0.961102352		3.129835919		2.828539032
F		-1.618440947		2.721588943		2.169311295
F		-0.53323446		0.010455182		2.74575626
F		1.769284369		0.905142985		1.927042234
F		2.924954342		1.893797272		-0.079760454
F		1.047478714		3.071660352		-2.402565604
F		1.707651868		4.051915987		0.626063465
F		4.070735966		3.162317011		2.452721168
F		-0.0498264		1.837818768		0.204949505
12
-186.39349496
Al		-0.101796657		1.662727096		2.151072821
Al		2.501453996		2.629092525		1.761556875
Al		1.334447558		2.686420181		-0.651202353
F		0.981163852		3.111411219		2.832033932
F		-1.598379447		2.703164243		2.172806195
F		-0.51317296		-0.007969518		2.74925126
F		1.789345869		0.886718285		1.930537234
F		2.945015842		1.875372572		-0.076265454
F		1.067540214		3.053235652		-2.399070704
F		1.727713368		4.033491287		0.629558365
F		4.090797466		3.143892311		2.456216168
F		-0.0297649		1.819394068		0.208444505
12
-186.39349496
Al		-0.077890657		1.640771596		2.155237521
Al		2.525360096		2.607137025		1.765721575
Al		1.358353658		2.664464581		-0.647037653
F		1.001225352		3.092986519		2.835528832
F		-1.578317947		2.684739543		2.176301095
F		-0.49311146		-0.026394218		2.75274626
F		1.809407369		0.868293585		1.934032234
F		2.965077342		1.856947872		-0.072770454
F		1.087601714		3.034810952		-2.395575804
F		1.747774868		4.015066587		0.633053265
F		4.110858966		3.125467611		2.459711168
F		-0.0097034		1.800969368		0.211939505
12
-186.39349496
Al		-0.053984657		1.618816096		2.159402221
Al		2.549266196		2.585181525		1.769886275
Al		1.382259758		2.642508981		-0.642872953
F		1.021286852		3.074561819		2.839023732
F		-1.558256447		2.666314843		2.179795995
F		-0.47304996		-0.044818918		2.75624126
F		1.829468869		0.849868885		1.937527234
F		2.985138842		1.838523172		-0.069275454
F		1.107663214		3.016386252		-2.392080904
F		1.767836368		3.996641887		0.636548165
F		4.130920466		3.107042911		2.463206168
F		0.0103581		1.782544668		0.215434505
12
-186.39349496
Al		-0.030078657		1.596860596		2.163566921
Al		2.573172296		2.563226025		1.774050975
Al		1.406165858		2.620553381		-0.638708253
F		1.041348352		3.056137119		2.842518632
F		-1.538194947		2.647890143		2.183290895
F		-0.45298846		-0.063243618		2.75973626
F		1.849530369		0.831444185		1.941022234
F		3.005200342		1.820098472		-0.065780454
F		1.127724714		2.997961552		-2.388586004
F		1.787897868		3.978217187		0.640043065
F		4.150981966		3.088618211		2.466701168
F		0.0304196		1.764119968		0.218929505
12
-186.39349496
Al		-0.006172657		1.574905096		2.167731621
Al		2.597078396		2.541270525		1.778215675
Al		1.430071958		2.598597781		-0.634543553
F		1.061409852		3.037712419		2.846013532
F		-1.518133447		2.629465443		2.186785795
F		-0.43292696		-0.081668318		2.76323126
F		1.869591869		0.813019485		1.944517234
F		3.025261842		1.801673772		-0.062285454
F		1.147786214		2.979536852		-2.385091104
F		1.807959368		3.959792487		0.643537965
F		4.171043466		3.070193511		2.470196168
F		0.0504811		1.745695268		0.222424505
12
-186.39349496
Al		0.017733343		1.552949596		2.171896321
Al		2.620984496		2.519315025		1.782380375
Al		1.453978058		2.576642181		-0.630378853
F		1.081471352		3.019287719		2.849508432
F		-1.498071947		2.611040743		2.190280695
F		-0.41286546		-0.100093018		2.76672626
F		1.889653369		0.794594785		1.948012234
F		3.045323342		1.783249072		-0.058790454
F		1.167847714		2.961112152		-2.381596204
F		1.828020868		3.941367787		0.647032865
F		4.191104966		3.051768811		2.473691168
F		0.0705426		1.727270568		0.225919505
12
-186.39349496
Al		0.041639343		1.530994096		2.176061021
Al		2.644890596		2.497359525		1.786545075
Al		1.477884158		2.554686581		-0.626214153
F		1.101532852		3.000863019		2.853003332
F		-1.478010447		2.592616043		2.193775595
F		-0.39280396		-0.118517718		2.77022126
F		1.909714869		0.776170085		1.951507234
F		3.065384842		1.764824372		-0.055295454
F		1.187909214		2.942687452		-2.378101304
F		1.848082368		3.922943087		0.650527765
F		4.211166466		3.033344111		2.477186168
F		0.0906041		1.708845868		0.229414505
12
-186.39349496
Al		0.065545343		1.509038596		2.180225721
Al		2.668796696		2.475404025		1.790709775
Al		1.501790258		2.532730981		-0.622049453
F		1.121594352		2.982438319		2.856498232
F		-1.457948947		2.574191343		2.197270495
F		-0.37274246		-0.136942418		2.77371626
F		1.929776369		0.757745385		1.955002234
F		3.085446342		1.746399672		-0.051800454
F		1.207970714		2.924262752		-2.374606404
F		1.868143868		3.904518387		0.654022665
F		4.231227966		3.014919411		2.480681168
F		0.1106656		1.690421168		0.232909505
12
-186.39349496
Al		0.089451343		1.487083096		2.184390421
Al		2.692702796		2.453448525		1.794874475
Al		1.525696358		2.510775381		-0.617884753
F		1.141655852		2.964013619		2.859993132
F		-1.437887447		2.555766643		2.200765395
F		-0.35268096		-0.155367118		2.77721126
F		1.949837869		0.739320685		1.958497234
F		3.105507842		1.727974972		-0.048305454
F		1.228032214		2.905838052		-2.371111504
F		1.888205368		3.886093687		0.657517565
F		4.251289466		2.996494711		2.484176168
F		0.1307271		1.671996468		0.236404505
12
-186.39349496
Al		0.113357343		1.465127596		2.188555121
Al		2.716608896		2.431493025		1.799039175
Al		1.549602458		2.488819781		-0.613720053
F		1.161717352		2.945588919		2.863488032
F		-1.417825947		2.537341943		2.204260295
F		-0.33261946		-0.173791818		2.78070626
F		1.969899369		0.720895985		1.961992234
F		3.125569342		1.709550272		-0.044810454
F		1.248093714		2.887413352		-2.367616604
F		1.908266868		3.867668987		0.661012465
F		4.271350966		2.978070011		2.487671168
F		0.1507886		1.653571768		0.239899505
12
-186.39349496
Al		0.137263343		1.443172096		2.192719821
Al		2.740514996		2.409537525		1.803203875
Al		1.573508558		2.466864181		-0.609555353
F		1.181778852		2.927164219		2.866982932
F		-1.397764447		2.518917243		2.207755195
F		-0.31255796		-0.192216518		2.78420126
F		1.989960869		0.702471285		1.965487234
F		3.145630842		1.691125572		-0.041315454
F		1.268155214		2.868988652		-2.364121704
F		1.928328368		3.849244287		0.664507365
F		4.291412466		2.959645311		2.491166168
F		0.1708501		1.635147068		0.243394505
