12
Properties=species:S:1:pos:R:3:forces:R:3 energy=-185.77729729 pbc="F F F"
Al    0.33514797199999996    -2.187540611    -1.783280861    -0.0    -0.0    -0.0
Al    2.11565913    -0.44563825600000007    -0.759002624    0.0    -0.0    0.0
Al    -0.299814206    0.408671903    -1.7741390830000001    -0.0    0.0    -0.0
F    3.852171288    -0.129483616    0.079055977    0.0    -0.0    0.0
F    -0.07801697399999999    -3.688867893    -2.148637636    -0.0    -0.0    -0.0
F    1.790462638    -2.072737276    -2.389451589    0.0    0.0    -0.0
F    1.5549474950000002    0.789945339    -2.48440142    0.0    -0.0    -0.0
F    -1.5515274220000002    1.730389531    -2.197897911    -0.0    0.0    -0.0
F    -0.954344486    -1.550284852    -1.116046769    -0.0    0.0    0.0
F    -0.060374974    -1.3248225089999999    -3.053465181    0.0    0.0    -0.0
F    0.34315399599999996    0.484326998    0.14180599800000002    -0.0    -0.0    0.0
F    0.819014134    -2.31774061    -0.284119173    -0.0    0.0    0.0
