12
Properties=species:S:1:pos:R:3:forces:R:3 energy=-185.27049681 pbc="F F F"
Al    -1.7031446609999998    2.35015822    -1.179623691    -0.794375    -1.170913    1.066293
Al    -0.405394555    -0.352793194    -2.6335321740000004    -0.773631    -2.504856    0.306881
Al    -2.170638576    -0.12299131799999999    -0.665501837    1.26645    2.222117    -3.306555
F    -0.958722541    3.700025036    -0.16163545699999998    -0.098687    0.0427    0.13315
F    -3.0367384470000003    3.238213193    -2.1100343919999998    -0.016497    0.046581    -0.153468
F    -1.3359480799999999    -1.596443827    -1.611262161    1.116076    1.137891    -0.699867
F    -2.7052693619999997    1.548236883    0.26132076200000004    -0.502752    0.706253    1.077306
F    -3.1587375630000003    -1.031616632    0.530600653    0.126802    0.456718    -0.002979
F    0.958191598    -0.48625274100000004    -3.925673704    0.016379    -0.45564    -0.253932
F    -0.16443332499999996    1.452924914    -1.920394831    -0.609116    -0.408188    0.298764
F    -2.818923557    0.471685551    -2.290805428    0.510857    -0.264786    1.233744
F    -0.35946276800000004    0.46204503899999994    -0.553663408    -0.241506    0.192123    0.300663
