12
Properties=species:S:1:pos:R:3:forces:R:3 energy=-185.74553039 pbc="F F F"
Al    0.09206877200000002    -2.2620432110000004    -1.886508461    0.120247    -0.272634    -0.485081
Al    1.7052793300000002    -0.5152578560000001    -0.544360424    0.151275    0.236996    0.358326
Al    -0.669779006    0.336904103    -1.5248246829999998    -0.174653    0.368773    0.254288
F    3.303165488    -0.172173416    0.288846977    0.048223    0.018481    0.0183
F    -0.224755774    -3.9513956930000003    -2.492414236    -0.054413    -0.220964    -0.057762
F    1.939212238    -1.6160040759999998    -2.211578189    -0.017713    -0.09671    -0.174568
F    1.248974495    0.8220003389999999    -1.9237504199999997    0.180061    0.248071    -0.227121
F    -1.814549822    1.663957131    -1.829472311    -0.035783    0.05649    -0.016674
F    -1.377129286    -1.3833442519999999    -0.9755681690000001    -0.265747    -0.053161    0.202968
F    -0.282734174    -0.8188147090000001    -3.131284181    0.068559    -0.124387    -0.156033
F    0.154579396    0.25747159799999997    0.231965598    -0.004644    -0.011872    -0.028157
F    0.8448171339999999    -2.1805328100000003    -0.05586297299999998    -0.01541    -0.149083    0.311514
