12
Properties=species:S:1:pos:R:3:forces:R:3 energy=-187.23400792 pbc="F F F"
Al    0.375732693    -0.5632971579999999    1.784352239    0.03248    -0.031973    0.161256
Al    2.339412365    -1.829901872    -0.5611154970000001    -0.093957    0.050649    -0.104154
Al    -0.9093574809999999    -1.8149482579999998    -1.026657643    0.036886    -0.025715    -0.045036
F    3.2962482069999997    -0.355510793    -1.07908918    0.095333    0.129213    -0.047896
F    -1.7731193539999999    -0.7953523880000001    -2.2908550969999997    -0.082617    0.108081    -0.106872
F    2.974777395    -3.5409541939999998    -0.566237143    0.057599    -0.191352    -0.021715
F    -1.3122145660000002    -3.582475702    -0.56626072    -0.018167    -0.149675    0.002017
F    1.761351997    -1.596291393    1.167169402    0.06241    -0.0693    0.123116
F    0.836949664    -1.7543658819999999    -1.598738665    0.050093    -0.00013    0.007602
F    -0.11379474799999999    -1.480464563    3.3235622890000003    -0.015053    -0.020537    0.050094
F    0.811536071    1.261989799    1.6849016360000002    0.03365    0.226318    -0.054756
F    -1.045313868    -0.817665383    0.561750814    -0.158656    -0.025577    0.036342
