      12
SCF Done            -187.23400792
Al            0.368707693        -0.599070158         1.743193239
Al            2.339415365        -1.783564872        -0.531258497
Al           -0.906745481        -1.835897258        -0.983785643
F             3.404833207        -0.385633793        -1.009806180
F            -1.870825354        -0.676613388        -2.005101097
F             2.825778395        -3.537940194        -0.639744143
F            -1.182662566        -3.635937702        -0.902027720
F             1.823281997        -1.600650393         1.228295402
F             0.816317664        -1.508691882        -1.491530665
F             0.036506252        -1.173291563         3.432720289
F             0.619581071         1.137895799         1.229664636
F            -1.031134868        -1.267853383         0.756113814
