12
Properties=species:S:1:pos:R:3:forces:R:3 energy=-185.20214074 pbc="F F F"
Al    0.9969991800000001    0.379940817    2.5977755730000003    -0.003727    -0.012682    0.020928
Al    1.1559059999999999    1.212464    -0.0386255    -1.666536    -1.565622    0.301599
Al    -0.6066795620000001    1.16773975    -2.1741042729999998    -0.01655    -0.00637    -0.017246
F    -1.654652172    -0.390906453    -2.232418606    -0.022272    0.008882    -0.061728
F    2.124660253    -0.247005953    0.343608452    -1.808381    3.460395    -1.801245
F    0.065970139    1.79612629    -3.807819333    -0.043236    -0.040395    0.007333
F    -0.14506481000000002    1.621314753    -1.001313549    3.655031    -1.725567    1.467045
F    2.490543057    2.258458012    -0.31447044300000004    -1.917458    -1.801353    0.347008
F    1.565383739    0.027732404999999988    -1.320575254    -0.05154    2.597364    3.426392
F    0.719951617    1.196377929    1.5726335390000001    1.898197    -0.862524    -3.760591
F    2.560600969    0.570650576    3.6151824369999996    -0.042928    -0.040549    0.008256
F    0.039331174999999996    -1.223062852    2.8081615710000003    0.0194    -0.011579    0.062247
