12
Properties=species:S:1:pos:R:3:forces:R:3 energy=-181.23068056 pbc="F F F"
Al    1.27451468    -0.008458483    2.571229673    0.002867    -1.425646    3.150857
Al    1.4331606000000001    1.0884924    0.258    0.086837    -6.034767    13.478933
Al    -0.6753523619999999    1.37152885    -1.9799359730000001    3.834285    0.907831    5.250546
F    -1.752192572    -0.519727053    -2.230728406    -3.170874    -2.700231    -0.040921
F    2.001178453    -0.199519753    0.617812252    -1.763585    4.952833    -3.470501
F    0.115043339    1.85649709    -3.9341709330000003    0.571165    1.979024    -3.285863
F    -0.38628921    1.6442845529999999    -1.225985449    -1.420191    -0.278285    -2.589454
F    2.588152957    2.419172712    -0.32804044299999996    0.497148    0.657686    -0.510589
F    1.616543239    -0.254654395    -1.639848054    -1.627174    -0.036882    -2.480038
F    0.428759717    1.571304029    1.5412734389999998    2.559315    -0.088884    -5.755646
F    2.4444931690000002    0.5512182760000001    3.530148037    -3.51619    -1.709967    -2.879022
F    0.131784075    -1.091175352    2.779313671    3.946398    3.777289    -0.8683
