      12
SCF Done            -181.23068056
Al            1.277738680        -0.012217483         2.569524673
Al            1.397708600         1.129839400         0.276740000
Al           -0.235129362         0.858103850        -2.212641973
F            -1.789865572        -0.475790053        -2.210814406
F             2.030331453        -0.265051753         0.648533252
F             0.078758339         1.898816090        -3.914989933
F            -0.463302210         1.952572553        -0.862846449
F             2.585724957         2.422003712        -0.326757443
F             1.217338239        -0.007535395        -1.751253054
F             0.467299717         1.557887029         1.474769439
F             2.443799169         0.552028276         3.530515037
F             0.131208075        -1.090504352         2.779618671
