12
Properties=species:S:1:pos:R:3:forces:R:3 energy=-185.70371720 pbc="F F F"
Al    0.18676007199999997    -2.289502211    -1.863615961    0.116013    0.370852    0.096689
Al    1.9019639299999997    -0.557827856    -0.870662324    0.132637    0.187884    0.083066
Al    -0.434432606    0.407563503    -1.836384983    0.026494    0.217065    0.037485
F    3.3375336879999997    -0.243504216    -0.171678323    0.241936    0.049111    0.11735
F    -0.16705927399999998    -4.014495193    -2.227618436    0.117096    0.451231    0.106542
F    2.101216338    -1.630695376    -2.023594389    -0.481606    -0.354644    -0.093206
F    1.876145495    0.526135639    -2.10782362    0.112513    0.159174    -0.285137
F    -1.685771522    1.887397631    -2.241570311    -0.130138    0.144153    -0.043273
F    -1.226043386    -1.5357752519999999    -0.8600594690000001    0.270581    -0.475962    -0.153268
F    -0.04639327400000001    -1.238263409    -3.416607081    0.102987    -0.51823    0.209944
F    0.859289096    0.269681298    0.095913898    -0.155041    0.091696    0.294708
F    1.258456334    -1.8432422099999999    -0.197158273    -0.353472    -0.322328    -0.370901
