12
Properties=species:S:1:pos:R:3:forces:R:3 energy=-187.22459658 pbc="F F F"
Al    0.150262793    -0.592216158    1.696073639    0.148107    0.004091    0.010952
Al    2.5091157649999998    -1.698571772    -0.23478979699999997    -0.14811    -0.081007    -0.214271
Al    -0.650073981    -1.9185993579999998    -1.233182843    -0.163211    0.08374    0.191507
F    3.463050607    -0.49818289299999996    -1.41268918    0.047914    0.038911    0.099948
F    -1.970696054    -0.5567919880000001    -1.647685997    0.050909    -0.002611    -0.102592
F    2.625737395    -3.561610294    -0.649566843    0.05602    -0.006425    0.075612
F    -1.446511566    -3.648340802    -0.91454422    0.068487    -0.032324    -0.059599
F    1.797782197    -1.561342493    1.461405102    -0.001527    0.064159    -0.034792
F    1.076772364    -1.448826282    -1.456235265    0.002174    -0.002067    -0.000924
F    0.249638052    -1.158793163    3.457781389    -0.059369    -0.004291    -0.001758
F    0.356088671    1.159315799    1.2241707359999998    0.013087    0.002182    0.00069
F    -0.957959668    -1.385041583    0.536004614    -0.014481    -0.064357    0.035224
