      12
SCF Done            -187.22459658
Al            0.372827793        -0.599017158         1.743793639
Al            2.332526765        -1.798837772        -0.552515797
Al           -0.919793981        -1.820880358        -0.965432843
F             3.480642607        -0.495677893        -1.081158180
F            -1.821312054        -0.564959988        -1.915491997
F             2.752168395        -3.563780294        -0.471187843
F            -1.205756566        -3.611339802        -1.084672220
F             1.906596197        -1.403648493         1.183165102
F             0.804218364        -1.508847282        -1.493293265
F             0.092747052        -1.172569163         3.440913389
F             0.410449671         1.135209799         1.199197736
F            -0.959229668        -1.462861583         0.823856614
