12
Properties=species:S:1:pos:R:3:forces:R:3 energy=-185.56392932 pbc="F F F"
Al    0.340958572    -2.369802811    -2.029497461    0.170452    0.177296    0.031352
Al    1.93507553    -0.493188256    -0.760738424    -0.323793    0.386525    0.341229
Al    -0.348910606    0.27679810299999996    -1.674618083    0.588212    0.33817    -0.127112
F    3.365150088    0.29366898399999997    0.161541577    -0.056911    -0.018979    0.121599
F    -0.293561574    -4.046983093000001    -2.292634436    0.005027    0.001327    -0.013633
F    2.133185838    -1.991380876    -2.440355189    -0.04212    0.099737    -0.434323
F    1.579508495    0.230723939    -2.26753162    -0.196625    -0.202868    -0.01133
F    -1.120552622    1.8945531310000001    -2.227412311    0.047951    0.008719    -0.112665
F    -0.921437486    -1.438201852    -0.834781369    -0.056423    -0.112728    0.524996
F    -0.39856777400000004    -0.962351909    -3.261271981    -0.316987    -0.147001    -0.398807
F    0.360159596    0.46758639799999996    -0.023660001999999996    0.061174    -0.179033    -0.105557
F    1.278373134    -2.09589061    -0.090174973    0.120043    -0.351165    0.184252
