12
-186.39349496
Al		-0.026113657		1.558359496		1.690990521
Al		2.584794296		2.589338625		1.883455975
Al		1.235474858		2.603267281		-0.601603853
F		1.016047452		2.980155319		2.794172932
F		-1.467531547		2.606072343		2.194755595
F		-0.43571576		0.103587382		2.76741176
F		1.443060569		0.903478185		2.039628334
F		2.875676742		1.943941872		-0.196608654
F		1.149602714		3.053435552		-2.333833104
F		1.666685768		3.979305087		0.443178465
F		4.231708266		3.185315811		2.527932068
F		0.1751809		1.889935268		0.657105605
