12
-186.39349496
Al		-0.089396613		1.659085372		2.25840342
Al		2.512152496		2.611092225		1.739558375
Al		1.385660084		2.678063984		-0.657134054
F		0.997931578		3.118060336		2.844719063
F		-1.602937083		2.702220922		2.172200186
F		-0.505866071		-0.055278866		2.74948723
F		1.890817953		0.860474593		1.910566465
F		2.984944145		1.837615853		-0.045250816
F		1.073823809		3.030672133		-2.409296212
F		1.765794694		4.023013587		0.675247667
F		4.084003368		3.112167777		2.44455098
F		-0.050788791		1.78119921		0.113013693
