12
-186.39349496
Al		-0.123914657		1.714026796		2.567901521
Al		2.472529696		2.622957825		1.661068775
Al		1.467579258		2.718862181		-0.687423253
F		0.988050152		3.193280919		2.872289632
F		-1.676794747		2.754665943		2.159897095
F		-0.54412986		-0.141933418		2.73971026
F		2.135048969		0.837018385		1.840169034
F		3.044544542		1.779619872		0.037307946
F		1.032489714		3.018255752		-2.450458204
F		1.819854068		4.046854587		0.801830865
F		4.003437366		3.072269211		2.399070368
F		-0.174045		1.721888568		-0.183763695
