12
-186.39349496
Al		-0.072137657		1.631614696		2.103654521
Al		2.531963896		2.605159425		1.778803175
Al		1.344700458		2.657664881		-0.641989453
F		1.002872252		3.080449719		2.830933732
F		-1.566008347		2.675998743		2.178351595
F		-0.48673416		-0.011951818		2.75437576
F		1.768702169		0.872202985		1.945765134
F		2.955143942		1.866613872		-0.086530254
F		1.094490714		3.036880352		-2.388715504
F		1.738764968		4.011093087		0.611956065
F		4.124286666		3.132117411		2.467291268
F		0.0108393		1.810854468		0.261402405
