12
-186.39349496
Al		-0.031866613		1.567516372		1.74257442
Al		2.578190496		2.591316225		1.870374375
Al		1.249128084		2.610066984		-0.606652054
F		1.014400578		2.992691336		2.798768063
F		-1.479841083		2.614813922		2.192705186
F		-0.442093071		0.089144134		2.76578223
F		1.483764953		0.899569593		2.027895465
F		2.885610145		1.934275853		-0.182848816
F		1.142713809		3.051366133		-2.340694212
F		1.675695694		3.983278587		0.464275667
F		4.218281368		3.178666777		2.52035198
F		0.154638209		1.88005021		0.607642693
