12
-186.39349496
Al		-0.043372657		1.585830196		1.845739521
Al		2.564982896		2.595271425		1.844211175
Al		1.276434458		2.623666381		-0.616748453
F		1.011106752		3.017765719		2.807958232
F		-1.504460347		2.632294743		2.188604095
F		-0.45484766		0.060260182		2.76252326
F		1.565176169		0.891749985		2.004429634
F		2.905476942		1.914943872		-0.155329254
F		1.128935714		3.047227352		-2.354414004
F		1.693715468		3.991225587		0.506470065
F		4.191425166		3.165366411		2.505191768
F		0.1135528		1.860279968		0.508716905
