12
-186.39349496
Al		-0.037619657		1.576673296		1.794156521
Al		2.571586696		2.593293825		1.857292775
Al		1.262781258		2.616866681		-0.611700253
F		1.012753652		3.005228919		2.803363132
F		-1.492150747		2.623553943		2.190654595
F		-0.44847036		0.074702582		2.76415276
F		1.524470969		0.895659385		2.016162534
F		2.895543542		1.924609872		-0.169089054
F		1.135824714		3.049296752		-2.347553704
F		1.684705568		3.987252087		0.485372865
F		4.204852866		3.172016211		2.512771868
F		0.1340955		1.870165068		0.558179805
