12
Properties=species:S:1:pos:R:3:forces:R:3 energy=-187.22168807 pbc="F F F"
Al    0.41054919300000003    -0.883043958    1.567129739    -0.379731    -0.593768    0.435139
Al    2.585929965    -1.840641072    -0.660251097    0.236275    0.589294    0.036581
Al    -0.630251381    -1.9979383579999999    -1.3093151429999998    0.095261    0.081496    -0.387905
F    3.6518169069999997    -0.46622419300000006    -1.1120503800000001    -0.112006    -0.16735    0.035217
F    -1.621601254    -0.693335088    -2.128350197    0.00248    -0.019736    0.023962
F    2.9998687950000003    -3.5928188939999997    -0.686256443    0.074232    -0.3928    -0.021126
F    -0.9353779659999999    -3.7622980019999996    -1.44466212    -0.034271    -0.10824    0.006337
F    2.002356397    -1.566934993    1.091974402    0.15478    -0.062965    -0.084645
F    1.062481164    -1.557969682    -1.660983065    -0.188921    -0.024664    -0.050281
F    0.10495215200000002    -1.509405163    3.256768889    0.049072    0.118112    -0.201458
F    0.416558571    0.9277888990000001    1.147283136    0.034789    0.456368    -0.125942
F    -0.835334068    -1.689145983    0.5450916140000001    0.06804    0.124252    0.33412
