      12
SCF Done            -187.22168807
Al            0.223876193        -0.715785958         1.777526739
Al            2.399256965        -1.673383072        -0.449854097
Al           -0.816924381        -1.830680358        -1.098918143
F             3.495164907        -0.325864193        -0.935489380
F            -1.778253254        -0.552975088        -1.951789197
F             2.843216795        -3.452458894        -0.509695443
F            -1.092029966        -3.621938002        -1.268101120
F             1.845704397        -1.426574993         1.268535402
F             0.905829164        -1.417609682        -1.484422065
F            -0.051699848        -1.369045163         3.433329889
F             0.259906571         1.068148899         1.323844136
F            -0.991986068        -1.548785983         0.721652614
