      12
SCF Done            -170.63414153
Al            0.224924395        -0.716790878         1.778168717
Al            2.398987563        -1.671536254        -0.451879690
Al           -0.817656382        -1.831537140        -1.097533336
F             3.493434511        -0.323231993        -0.937685403
F            -1.780619051        -0.554058089        -1.949298021
F             2.844355587        -3.450627677        -0.512428392
F            -1.091364573        -3.622879385        -1.267336669
F             1.846730996        -1.426042132         1.267384000
F             0.904530164        -1.416830882        -1.484665065
F            -0.048875649        -1.370732841         3.433859081
F             0.258993379         1.067559166         1.325008072
F            -0.991300869        -1.550252321         0.723022412
