12
Properties=species:S:1:pos:R:3:forces:R:3 energy=-185.77283480 pbc="F F F"
Al    0.45026857200000003    -2.228456811    -1.507291061    -0.109369    -0.107653    0.186675
Al    2.28242153    -0.4212094559999999    -0.648828224    0.108854    0.082654    -0.060184
Al    -0.08487280599999997    0.427795303    -1.6504892830000002    0.031909    0.11371    -0.10748
F    3.855752688    -0.072686216    0.051688977    0.009578    0.003959    0.010126
F    -0.06821057400000002    -3.9612764929999997    -1.854643836    -0.011315    -0.055271    -0.020033
F    2.2515918380000004    -1.7984268760000002    -2.0826077890000003    0.100901    -0.005328    -0.067924
F    1.739400495    0.684582339    -2.1912924200000004    -0.031133    -0.030991    0.03933
F    -1.247920222    1.757734731    -2.1049727110000003    -0.011649    0.013616    0.001848
F    -0.9556660859999999    -1.1094946520000002    -0.762338569    0.010336    -0.072245    0.016822
F    0.035742626    -1.0037179090000001    -3.018960181    -0.012547    0.041311    -0.111088
F    0.747991796    0.578805198    0.065329198    -0.029566    0.062434    0.130365
F    1.260183134    -1.9042040100000002    0.174014227    -0.055998    -0.046198    -0.018455
