      12
SCF Done            -185.77283480
Al            0.226012572        -2.341125811        -1.717300061
Al            2.058165530        -0.533878456        -0.858837224
Al           -0.309128806         0.315126303        -1.860498283
F             3.667561688        -0.167236216        -0.124547023
F            -0.256401574        -4.055826493        -2.030879836
F             2.063400838        -1.892976876        -2.258843789
F             1.551209495         0.590032339        -2.367528420
F            -1.436111222         1.663184731        -2.281208711
F            -1.143857086        -1.204044652        -0.938574569
F            -0.152448374        -1.098267909        -3.195196181
F             0.559800796         0.484255198        -0.110906802
F             1.071992134        -1.998754010        -0.002221773
