      12
SCF Done            -184.22589053
Al            0.271326872        -2.344228111        -1.830963561
Al            2.049808530        -0.537518656        -0.800080024
Al           -0.346086506         0.321868803        -1.805591983
F             3.642601888        -0.176055016        -0.023063523
F            -0.171694874        -4.050890993        -2.233992636
F             2.214756038        -2.016559376        -2.125271489
F             1.542315795         0.887154139        -2.097639220
F            -1.495857422         1.667068031        -2.179579411
F            -1.319573086        -1.313841052        -1.215950169
F            -0.394673374        -1.080578409        -3.220400081
F             0.617416096         0.653890798        -0.093188602
F             1.289856334        -2.249822010        -0.120821573
