12
Properties=species:S:1:pos:R:3:forces:R:3 energy=-187.28711002 pbc="F F F"
Al    1.12050268    0.061165617    2.3505937730000004    -0.326196    0.212481    -0.232345
Al    1.4449569999999998    1.347235    -0.11351800000000001    0.07398    0.069501    -0.013387
Al    -0.296657662    0.6923328500000001    -2.203726473    0.237931    -0.295416    0.248339
F    -1.260680472    -0.879260453    -2.012077506    -0.345696    -0.448765    0.032415
F    1.771078753    -0.437485353    0.605183252    0.213442    -0.360168    -0.209029
F    -0.485800861    1.95170589    -3.622465233    0.063308    0.641725    -0.618963
F    -0.42722741000000003    1.679504953    -0.5524225490000001    -0.304381    0.274735    0.225486
F    2.729918557    2.554395512    -0.346063443    -0.015653    -0.014705    0.002833
F    1.594089239    0.41786750500000003    -1.853555154    0.21951    -0.151186    -0.183747
F    0.868680317    1.875317629    1.703822639    -0.103881    0.259813    0.162818
F    2.615670869    0.028735275999999976    3.5329784369999997    0.749272    0.121667    0.471891
F    -0.500049025    -0.795316352    2.626679971    -0.461635    -0.309683    0.113688
