12
Properties=species:S:1:pos:R:3:forces:R:3 energy=-187.18695103 pbc="F F F"
Al    0.297491393    -0.576138158    1.7702985390000001    -0.122922    -0.087559    0.363887
Al    2.407681165    -1.791661272    -0.527994497    -0.091102    -0.033544    -0.155749
Al    -0.9066081810000001    -1.843098558    -1.0242979429999999    0.262487    0.103604    -0.159498
F    3.436036507    -0.5836559929999999    -1.47538898    0.277897    0.261441    -0.210924
F    -1.526562054    -0.268226888    -1.8033983969999998    -0.200071    0.33648    -0.171293
F    2.942436795    -3.521155094    -0.021030442999999982    0.044761    -0.401129    0.038825
F    -1.663859566    -3.534907602    -1.23728472    -0.113337    -0.459063    -0.111729
F    1.983807797    -0.914251793    1.0477830019999999    0.346406    0.003855    0.21428
F    0.869244164    -1.992801482    -1.584906465    -0.08006    -0.003001    -0.011724
F    0.330742552    -1.4132905629999999    3.410455089    0.001624    -0.051781    0.133136
F    -0.059207229    1.225820099    1.454167536    -0.09275    0.56508    -0.162852
F    -0.867609668    -1.655346183    0.8202720139999999    -0.232933    -0.234384    0.23364
