12
Properties=species:S:1:pos:R:3:forces:R:3 energy=-187.24229559 pbc="F F F"
Al    0.429734193    -0.8235175579999999    1.8668197389999999    0.119009    0.215264    -0.108699
Al    2.326261165    -1.6964624719999999    -0.6729252969999999    -0.059626    -0.212473    -0.036598
Al    -0.942180181    -1.702806558    -0.965988143    -0.071553    -0.01857    0.094532
F    3.450915307    -0.40296999299999997    -1.22073878    0.067124    0.082249    -0.031775
F    -1.9130610540000001    -0.303763488    -1.6133413970000001    -0.00376    0.011659    -0.012455
F    2.674515595    -3.499178294    -0.762162043    -0.016455    0.103859    -0.003592
F    -1.289316766    -3.495490602    -1.31466792    0.003682    0.001456    -0.008724
F    1.997235197    -1.422229193    1.130840402    -0.036399    0.024608    0.061035
F    0.765689164    -1.332364282    -1.5144378649999999    0.087813    0.012602    -0.004661
F    0.31007595200000004    -1.556709363    3.505651089    -0.020542    -0.040603    0.096987
F    0.316517571    1.017171099    1.496169136    -0.009729    -0.123286    0.044074
F    -0.885693468    -1.648129183    0.8915572140000001    -0.059566    -0.056764    -0.090124
