      12
SCF Done            -187.24229559
Al            0.391544193        -0.560491558         1.728042739
Al            2.334252165        -1.827197472        -0.542653297
Al           -0.918205181        -1.830303558        -0.956302143
F             3.469823307        -0.553152993        -1.171875780
F            -1.853442054        -0.568389488        -1.864692397
F             2.701377595        -3.598969294        -0.485921043
F            -1.271066766        -3.610339602        -1.002929920
F             1.913725197        -1.411114193         1.191583402
F             0.807137164        -1.538787282        -1.490890865
F             0.162448952        -1.106800363         3.446581089
F             0.455078571         1.157492099         1.156840136
F            -0.950788468        -1.419313183         0.818770214
