12
Properties=species:S:1:pos:R:3:forces:R:3 energy=-182.90486302 pbc="F F F"
Al    -1.739429261    2.75839082    -1.228662691    0.243204    -0.219927    0.180842
Al    -0.279938755    0.10773880599999999    -2.612995374    0.940833    1.153855    -1.003797
Al    -2.452492176    -0.334299518    -0.229034437    -1.087308    0.741193    1.221704
F    -0.6499001409999999    3.750867836    -0.051724256999999996    0.131445    0.195602    0.156059
F    -3.107886047    3.206623193    -2.392652992    0.127319    -0.382455    0.045113
F    -1.40454528    -1.072540227    -1.6338145609999999    0.084171    4.817631    0.970003
F    -2.430823962    1.550310883    -0.05718483799999999    1.187199    -0.821553    -1.95842
F    -3.545031163    -1.6599864320000002    0.914459453    -1.606092    -1.712189    1.69073
F    0.958454798    -0.743684541    -4.027254504    1.787136    -1.021787    -2.032689
F    -0.45114492500000003    1.953106314    -2.229503831    -1.635388    -1.395845    1.138831
F    -2.056657157    0.051214751    -2.0197270279999997    0.571456    -0.617277    0.406324
F    -0.662902168    -0.06054416100000001    -0.770294008    -0.743975    -0.737249    -0.8147
