12
Properties=species:S:1:pos:R:3:forces:R:3 energy=-185.76396026 pbc="F F F"
Al    0.239974372    -2.022772411    -1.6680566609999998    -0.17799    -0.221597    0.269837
Al    2.10861773    -0.205448056    -0.8902080240000001    0.211828    0.173994    -0.068687
Al    -0.257382606    0.6430305030000001    -1.895401883    0.037887    0.244338    -0.16433
F    3.7212768880000002    0.11180398399999997    -0.175788023    0.023407    0.009407    0.018603
F    -0.268693374    -3.7950142929999995    -1.936299436    -0.030371    -0.125062    -0.033683
F    2.077081438    -1.660921676    -2.2490633890000002    0.165254    -0.035681    -0.140804
F    1.5945644950000002    0.829588339    -2.4238334200000002    -0.031528    -0.028752    0.034844
F    -1.380055622    1.941273331    -2.338840111    -0.024052    0.031013    -0.000675
F    -1.1119958859999999    -0.895944052    -0.914750969    -0.016073    -0.115168    0.059999
F    -0.13775157400000002    -0.8666261089999999    -3.1881901810000004    -0.015211    0.038383    -0.21147
F    0.620320196    0.800269798    -0.15039420199999998    -0.048979    0.114211    0.221391
F    1.102837134    -1.6902402100000002    0.024376427    -0.094169    -0.085089    0.014978
