12
Properties=species:S:1:pos:R:3:forces:R:3 energy=-186.49715251 pbc="F F F"
Al    1.43420718    0.156446617    2.612352673    0.711129    0.149169    -0.047631
Al    1.1933724    0.9175796    -0.0999001    0.230641    -2.095216    -0.423418
Al    -0.286426062    1.00169855    -2.507545173    0.612863    0.19745    -0.340074
F    -1.681165772    -0.25276925299999997    -2.262834406    -0.821577    0.106069    0.478776
F    2.201477653    -0.40805605300000003    0.9188863519999999    0.691057    -0.065168    0.127484
F    -0.127817861    1.85106969    -4.094712133    -0.025768    0.044925    0.015083
F    -0.40631090999999997    1.920322553    -0.7995186489999999    -0.555962    -0.079729    0.447268
F    2.511372357    2.3340342119999997    -0.308992243    0.358113    1.496551    0.126718
F    1.272185039    0.048451805    -1.846302554    0.472652    0.04212    -0.522381
F    0.420604317    1.5141017289999998    1.661047239    -0.717242    -0.000503    -0.032632
F    2.579675969    0.521028476    3.961673637    -0.025186    0.044637    0.016822
F    0.049440075    -1.102920152    2.886731271    -0.93072    0.159695    0.153984
