      12
SCF Done            -187.04990853
Al            0.343498493        -0.560499058         1.779061039
Al            2.331140265        -1.780013672        -0.506750697
Al           -0.878175981        -1.821229958        -0.974289743
F             3.485281607        -0.486611893        -1.117628080
F            -1.842246954        -0.555031788        -1.893751997
F             2.741076595        -3.579620894        -0.492038843
F            -1.229884966        -3.630618702        -1.070535620
F             1.918548097        -1.428060193         1.190080702
F             0.831365164        -1.509933682        -1.486091865
F             0.113766352        -1.162429263         3.409069189
F             0.405382871         1.101148099         1.207785336
F            -0.975756268        -1.465230883         0.768433214
