12
Properties=species:S:1:pos:R:3:forces:R:3 energy=-186.33865234 pbc="F F F"
Al    -1.681441061    2.24814422    -1.3241476909999998    -0.00189    0.030098    0.061976
Al    -0.6056143549999999    -0.303668994    -2.555315974    0.06427    0.03093    -0.419912
Al    -2.0539175760000004    -0.651222518    -0.522963637    -0.011241    -0.01536    0.341534
F    -0.649687741    3.444860236    -0.342927057    0.076952    0.07644    0.069414
F    -3.116368047    2.889983793    -2.268930792    -0.131416    0.047719    -0.096851
F    -1.35641788    -1.935961427    -1.798135961    -0.006091    -0.081863    -0.016
F    -2.368778562    1.188220483    0.064922562    -0.030228    -0.03032    0.058672
F    -3.001017763    -1.569277032    0.707221453    -0.100105    -0.067134    0.092506
F    0.437243798    -0.7669011410000001    -3.927219104    0.077187    -0.016122    -0.062761
F    -0.421859325    1.642566714    -2.5593342310000002    0.077775    -0.008023    -0.062867
F    -2.518891357    0.19523635099999997    -2.2918644280000002    -0.066846    0.035225    -0.1584
F    -0.174193368    -0.07822376100000003    -0.599661608    0.051632    -0.001591    0.192688
