      12
SCF Done            -167.48903005
Al           -1.711360989         2.557277085        -1.219755606
Al           -0.636057570         0.006279204        -2.453339556
Al           -2.084286986        -0.342654312        -0.421176249
F            -0.674567080         3.703324311        -0.254518573
F            -3.141451370         3.150422466        -2.180774919
F            -1.382169688        -1.676215837        -1.713788354
F            -2.393969280         1.446776910         0.151728985
F            -3.026574730        -1.311035546         0.791966764
F             0.411543490        -0.505975860        -3.842106600
F            -0.447131093         1.902642922        -2.472320122
F            -2.544366557         0.455584351        -2.205808028
F            -0.199598963         0.180357180        -0.513977188
