12
Properties=species:S:1:pos:R:3:forces:R:3 energy=-187.24462511 pbc="F F F"
Al    0.384341293    -0.596490158    1.767272639    0.011309    -0.001119    0.008097
Al    2.327531765    -1.785470072    -0.558245497    -0.009435    0.00783    -0.008647
Al    -0.9145120809999999    -1.833280658    -0.9973500430000001    -0.005067    -0.007012    0.000694
F    3.328904607    -0.301503393    -0.95779758    0.004008    0.004707    -0.001524
F    -1.8780669540000001    -0.814812388    -2.200405497    -0.003077    0.004891    -0.004678
F    2.917637595    -3.5127313940000002    -0.730835543    0.00337    -0.011617    -0.000643
F    -1.161373566    -3.643453902    -0.66209272    0.000236    -0.002144    0.00013
F    1.7463823969999999    -1.717895593    1.203685202    -0.001531    -0.000283    0.008099
F    0.8097926639999999    -1.559230682    -1.533310065    0.010033    9.8e-05    0.001482
F    -0.04865634799999999    -1.319341563    3.387795689    -0.001285    -0.000833    0.001914
F    0.8309076710000001    1.186318199    1.450977836    0.000863    0.009165    -0.002294
F    -1.099065268    -0.9699867830000001    0.660196414    -0.009423    -0.003682    -0.002629
