12
-186.56215295
Al		-0.327516638		1.04162426		-1.796315236
Al		-0.442366014		1.075569053		1.284932136
Al		-2.972523919		0.469186189		-1.838401642
F		-3.545818961		0.310857208		-3.643578908
F		-1.396843557		-0.568078401		-1.843601745
F		-1.965566187		2.063451403		-1.893791583
F		-2.041513125		0.714085739		0.452364824
F		0.581934827		1.266231543		-0.325182411
F		-0.302381375		2.735520397		1.989776547
F		0.364817415		-0.351674158		2.048654545
F		-4.298842692		0.20692737		-0.559951165
F		0.740940327		1.245232437		-3.227979929
