12
-186.56215295
Al		-0.510059638		0.99996476		-1.912104736
Al		-0.469921514		1.069302053		1.268594636
Al		-3.209514919		0.416021689		-1.940458142
F		-3.475259461		0.330288208		-3.424321908
F		-1.298626557		-0.538372901		-1.837011245
F		-1.863900687		2.077201403		-1.886896583
F		-2.005239125		0.722245739		0.469167824
F		0.654342327		1.284780043		-0.173125911
F		-0.299560375		2.753546397		1.995132547
F		0.374785915		-0.366719658		2.054641045
F		-4.188348692		0.22881887		-0.664203165
F		0.771301827		1.251228937		-3.257610429
