12
-186.56215295
Al		-0.217990838		1.06661996		-1.726841536
Al		-0.425832714		1.079329253		1.294734636
Al		-2.830329319		0.501084889		-1.777167742
F		-3.588154661		0.299198608		-3.775133108
F		-1.455773757		-0.585901701		-1.847556045
F		-2.026565487		2.055201403		-1.897928583
F		-2.063277525		0.709189739		0.442283024
F		0.538490327		1.255102443		-0.416416311
F		-0.304073975		2.724704797		1.986562947
F		0.358836315		-0.342646858		2.045062645
F		-4.365139092		0.19379247		-0.497399965
F		0.722723427		1.241634537		-3.210201629
