12
-186.56215295
Al		-0.400533838		1.02496046		-1.842631036
Al		-0.453388214		1.073062253		1.278397136
Al		-3.067320319		0.447920389		-1.879224242
F		-3.517595161		0.318629608		-3.555876108
F		-1.357556757		-0.556196201		-1.840965545
F		-1.924899987		2.068951403		-1.891033583
F		-2.027003525		0.717349739		0.459086024
F		0.610897827		1.273650943		-0.264359811
F		-0.301252975		2.742730797		1.991918947
F		0.368804815		-0.357692358		2.051049145
F		-4.254645092		0.21568397		-0.601651965
F		0.753084927		1.247631037		-3.239832129
