12
-186.56215295
Al		-0.583076838		0.98330096		-1.958420536
Al		-0.480943714		1.066795253		1.262059636
Al		-3.304311319		0.394755889		-1.981280742
F		-3.447035661		0.338060608		-3.336619108
F		-1.259339757		-0.526490701		-1.834375045
F		-1.823234487		2.082701403		-1.884138583
F		-1.990729525		0.725509739		0.475889024
F		0.683305327		1.292199443		-0.112303311
F		-0.298431975		2.760756797		1.997274947
F		0.378773315		-0.372737858		2.057035645
F		-4.144151092		0.23757547		-0.705903965
F		0.783446427		1.253627537		-3.269462629
