12
-186.56215295
Al		0.001060762		1.11661136		-1.587894136
Al		-0.392766114		1.086849653		1.314339636
Al		-2.545940119		0.564882289		-1.654699942
F		-3.672826061		0.275881408		-4.038241508
F		-1.573634157		-0.621548301		-1.855464645
F		-2.148564087		2.038701403		-1.906202583
F		-2.106806325		0.699397739		0.422119424
F		0.451601327		1.232844243		-0.598884111
F		-0.307459175		2.703073597		1.980135747
F		0.346874115		-0.324592258		2.037878845
F		-4.497731892		0.16752267		-0.372297565
F		0.686289627		1.234438737		-3.174645029
