12
-186.56215295
Al		-0.583076838		0.98330096		-1.958420536
Al		-0.480943581		1.066795291		1.262059601
Al		-3.304311303		0.394755878		-1.981281009
F		-3.447035655		0.338060536		-3.336619361
F		-1.259339758		-0.526490704		-1.834375138
F		-1.823234493		2.082701389		-1.884138761
F		-1.990729377		0.725509855		0.475888909
F		0.683305416		1.292199497		-0.112303375
F		-0.298431781		2.760756804		1.997274971
F		0.378773408		-0.372737871		2.057035558
F		-4.144150967		0.237575526		-0.705904113
F		0.783446419		1.253627503		-3.269462644
