12
-186.56215295
Al		0.001060762		1.11661136		-1.587894136
Al		-0.392765981		1.086849691		1.314339601
Al		-2.545940103		0.564882278		-1.654700209
F		-3.672826055		0.275881336		-4.038241761
F		-1.573634158		-0.621548304		-1.855464738
F		-2.148564093		2.038701389		-1.906202761
F		-2.106806177		0.699397855		0.422119309
F		0.451601416		1.232844297		-0.598884175
F		-0.307458981		2.703073604		1.980135771
F		0.346874208		-0.324592271		2.037878758
F		-4.497731767		0.167522726		-0.372297713
F		0.686289619		1.234438703		-3.174645044
