12
-186.56215295
Al		-0.254499438		1.05828806		-1.749999436
Al		-0.431343814		1.078075853		1.291467136
Al		-2.877727519		0.490451989		-1.797579042
F		-3.574042761		0.303084808		-3.731281708
F		-1.436130357		-0.579960601		-1.846237945
F		-2.006232387		2.057951403		-1.896549583
F		-2.056022725		0.710821739		0.445643624
F		0.552971827		1.258812143		-0.386005011
F		-0.303509775		2.728309997		1.987634147
F		0.360830015		-0.345655958		2.046259945
F		-4.343040292		0.19817077		-0.518250365
F		0.728795727		1.242833837		-3.216127729
