12
-186.56215295
Al		0.001060762		1.11661136		-1.587894136
Al		-0.392766114		1.086849653		1.314339636
Al		-2.545940119		0.564882289		-1.654699942
F		-3.672826061		0.275881408		-4.038241508
F		-1.573634157		-0.621548301		-1.855464645
F		-2.148564087		2.038701403		-1.906202583
F		-2.106806325		0.699397739		0.422119424
F		0.451601327		1.232844243		-0.598884111
F		-0.307459175		2.703073597		1.980135747
F		0.346874115		-0.324592258		2.037878845
F		-4.497731892		0.16752267		-0.372297565
F		0.686289627		1.234438737		-3.174645029
12
-186.56215295
Al		-0.035447838		1.10827946		-1.611052036
Al		-0.398277214		1.085596253		1.311072136
Al		-2.593338319		0.554249389		-1.675111242
F		-3.658714161		0.279767608		-3.994390108
F		-1.553990757		-0.615607201		-1.854146545
F		-2.128230987		2.041451403		-1.904823583
F		-2.099551525		0.701029739		0.425480024
F		0.466082827		1.236553943		-0.568472811
F		-0.306894975		2.706678797		1.981206947
F		0.348867815		-0.327601358		2.039076145
F		-4.475633092		0.17190097		-0.393147965
F		0.692361927		1.235638037		-3.180571129
12
-186.56215295
Al		-0.071956438		1.09994756		-1.634209936
Al		-0.403788314		1.084342853		1.307804636
Al		-2.640736519		0.543616489		-1.695522542
F		-3.644602261		0.283653808		-3.950538708
F		-1.534347357		-0.609666101		-1.852828445
F		-2.107897887		2.044201403		-1.903444583
F		-2.092296725		0.702661739		0.428840624
F		0.480564327		1.240263643		-0.538061511
F		-0.306330775		2.710283997		1.982278147
F		0.350861515		-0.330610458		2.040273445
F		-4.453534292		0.17627927		-0.413998365
F		0.698434227		1.236837337		-3.186497229
12
-186.56215295
Al		-0.108465038		1.09161566		-1.657367836
Al		-0.409299414		1.083089453		1.304537136
Al		-2.688134719		0.532983589		-1.715933842
F		-3.630490361		0.287540008		-3.906687308
F		-1.514703957		-0.603725001		-1.851510345
F		-2.087564787		2.046951403		-1.902065583
F		-2.085041925		0.704293739		0.432201224
F		0.495045827		1.243973343		-0.507650211
F		-0.305766575		2.713889197		1.983349347
F		0.352855215		-0.333619558		2.041470745
F		-4.431435492		0.18065757		-0.434848765
F		0.704506527		1.238036637		-3.192423329
12
-186.56215295
Al		-0.144973638		1.08328376		-1.680525736
Al		-0.414810514		1.081836053		1.301269636
Al		-2.735532919		0.522350689		-1.736345142
F		-3.616378461		0.291426208		-3.862835908
F		-1.495060557		-0.597783901		-1.850192245
F		-2.067231687		2.049701403		-1.900686583
F		-2.077787125		0.705925739		0.435561824
F		0.509527327		1.247683043		-0.477238911
F		-0.305202375		2.717494397		1.984420547
F		0.354848915		-0.336628658		2.042668045
F		-4.409336692		0.18503587		-0.455699165
F		0.710578827		1.239235937		-3.198349429
12
-186.56215295
Al		-0.181482238		1.07495186		-1.703683636
Al		-0.420321614		1.080582653		1.298002136
Al		-2.782931119		0.511717789		-1.756756442
F		-3.602266561		0.295312408		-3.818984508
F		-1.475417157		-0.591842801		-1.848874145
F		-2.046898587		2.052451403		-1.899307583
F		-2.070532325		0.707557739		0.438922424
F		0.524008827		1.251392743		-0.446827611
F		-0.304638175		2.721099597		1.985491747
F		0.356842615		-0.339637758		2.043865345
F		-4.387237892		0.18941417		-0.476549565
F		0.716651127		1.240435237		-3.204275529
12
-186.56215295
Al		-0.217990838		1.06661996		-1.726841536
Al		-0.425832714		1.079329253		1.294734636
Al		-2.830329319		0.501084889		-1.777167742
F		-3.588154661		0.299198608		-3.775133108
F		-1.455773757		-0.585901701		-1.847556045
F		-2.026565487		2.055201403		-1.897928583
F		-2.063277525		0.709189739		0.442283024
F		0.538490327		1.255102443		-0.416416311
F		-0.304073975		2.724704797		1.986562947
F		0.358836315		-0.342646858		2.045062645
F		-4.365139092		0.19379247		-0.497399965
F		0.722723427		1.241634537		-3.210201629
12
-186.56215295
Al		-0.254499438		1.05828806		-1.749999436
Al		-0.431343814		1.078075853		1.291467136
Al		-2.877727519		0.490451989		-1.797579042
F		-3.574042761		0.303084808		-3.731281708
F		-1.436130357		-0.579960601		-1.846237945
F		-2.006232387		2.057951403		-1.896549583
F		-2.056022725		0.710821739		0.445643624
F		0.552971827		1.258812143		-0.386005011
F		-0.303509775		2.728309997		1.987634147
F		0.360830015		-0.345655958		2.046259945
F		-4.343040292		0.19817077		-0.518250365
F		0.728795727		1.242833837		-3.216127729
12
-186.56215295
Al		-0.291008038		1.04995616		-1.773157336
Al		-0.436854914		1.076822453		1.288199636
Al		-2.925125719		0.479819089		-1.817990342
F		-3.559930861		0.306971008		-3.687430308
F		-1.416486957		-0.574019501		-1.844919845
F		-1.985899287		2.060701403		-1.895170583
F		-2.048767925		0.712453739		0.449004224
F		0.567453327		1.262521843		-0.355593711
F		-0.302945575		2.731915197		1.988705347
F		0.362823715		-0.348665058		2.047457245
F		-4.320941492		0.20254907		-0.539100765
F		0.734868027		1.244033137		-3.222053829
12
-186.56215295
Al		-0.327516638		1.04162426		-1.796315236
Al		-0.442366014		1.075569053		1.284932136
Al		-2.972523919		0.469186189		-1.838401642
F		-3.545818961		0.310857208		-3.643578908
F		-1.396843557		-0.568078401		-1.843601745
F		-1.965566187		2.063451403		-1.893791583
F		-2.041513125		0.714085739		0.452364824
F		0.581934827		1.266231543		-0.325182411
F		-0.302381375		2.735520397		1.989776547
F		0.364817415		-0.351674158		2.048654545
F		-4.298842692		0.20692737		-0.559951165
F		0.740940327		1.245232437		-3.227979929
12
-186.56215295
Al		-0.364025238		1.03329236		-1.819473136
Al		-0.447877114		1.074315653		1.281664636
Al		-3.019922119		0.458553289		-1.858812942
F		-3.531707061		0.314743408		-3.599727508
F		-1.377200157		-0.562137301		-1.842283645
F		-1.945233087		2.066201403		-1.892412583
F		-2.034258325		0.715717739		0.455725424
F		0.596416327		1.269941243		-0.294771111
F		-0.301817175		2.739125597		1.990847747
F		0.366811115		-0.354683258		2.049851845
F		-4.276743892		0.21130567		-0.580801565
F		0.747012627		1.246431737		-3.233906029
12
-186.56215295
Al		-0.400533838		1.02496046		-1.842631036
Al		-0.453388214		1.073062253		1.278397136
Al		-3.067320319		0.447920389		-1.879224242
F		-3.517595161		0.318629608		-3.555876108
F		-1.357556757		-0.556196201		-1.840965545
F		-1.924899987		2.068951403		-1.891033583
F		-2.027003525		0.717349739		0.459086024
F		0.610897827		1.273650943		-0.264359811
F		-0.301252975		2.742730797		1.991918947
F		0.368804815		-0.357692358		2.051049145
F		-4.254645092		0.21568397		-0.601651965
F		0.753084927		1.247631037		-3.239832129
12
-186.56215295
Al		-0.437042438		1.01662856		-1.865788936
Al		-0.458899314		1.071808853		1.275129636
Al		-3.114718519		0.437287489		-1.899635542
F		-3.503483261		0.322515808		-3.512024708
F		-1.337913357		-0.550255101		-1.839647445
F		-1.904566887		2.071701403		-1.889654583
F		-2.019748725		0.718981739		0.462446624
F		0.625379327		1.277360643		-0.233948511
F		-0.300688775		2.746335997		1.992990147
F		0.370798515		-0.360701458		2.052246445
F		-4.232546292		0.22006227		-0.622502365
F		0.759157227		1.248830337		-3.245758229
12
-186.56215295
Al		-0.473551038		1.00829666		-1.888946836
Al		-0.464410414		1.070555453		1.271862136
Al		-3.162116719		0.426654589		-1.920046842
F		-3.489371361		0.326402008		-3.468173308
F		-1.318269957		-0.544314001		-1.838329345
F		-1.884233787		2.074451403		-1.888275583
F		-2.012493925		0.720613739		0.465807224
F		0.639860827		1.281070343		-0.203537211
F		-0.300124575		2.749941197		1.994061347
F		0.372792215		-0.363710558		2.053443745
F		-4.210447492		0.22444057		-0.643352765
F		0.765229527		1.250029637		-3.251684329
12
-186.56215295
Al		-0.510059638		0.99996476		-1.912104736
Al		-0.469921514		1.069302053		1.268594636
Al		-3.209514919		0.416021689		-1.940458142
F		-3.475259461		0.330288208		-3.424321908
F		-1.298626557		-0.538372901		-1.837011245
F		-1.863900687		2.077201403		-1.886896583
F		-2.005239125		0.722245739		0.469167824
F		0.654342327		1.284780043		-0.173125911
F		-0.299560375		2.753546397		1.995132547
F		0.374785915		-0.366719658		2.054641045
F		-4.188348692		0.22881887		-0.664203165
F		0.771301827		1.251228937		-3.257610429
12
-186.56215295
Al		-0.546568238		0.99163286		-1.935262636
Al		-0.475432614		1.068048653		1.265327136
Al		-3.256913119		0.405388789		-1.960869442
F		-3.461147561		0.334174408		-3.380470508
F		-1.278983157		-0.532431801		-1.835693145
F		-1.843567587		2.079951403		-1.885517583
F		-1.997984325		0.723877739		0.472528424
F		0.668823827		1.288489743		-0.142714611
F		-0.298996175		2.757151597		1.996203747
F		0.376779615		-0.369728758		2.055838345
F		-4.166249892		0.23319717		-0.685053565
F		0.777374127		1.252428237		-3.263536529
12
-186.56215295
Al		-0.583076838		0.98330096		-1.958420536
Al		-0.480943714		1.066795253		1.262059636
Al		-3.304311319		0.394755889		-1.981280742
F		-3.447035661		0.338060608		-3.336619108
F		-1.259339757		-0.526490701		-1.834375045
F		-1.823234487		2.082701403		-1.884138583
F		-1.990729525		0.725509739		0.475889024
F		0.683305327		1.292199443		-0.112303311
F		-0.298431975		2.760756797		1.997274947
F		0.378773315		-0.372737858		2.057035645
F		-4.144151092		0.23757547		-0.705903965
F		0.783446427		1.253627537		-3.269462629
12
-186.56215295
Al		-0.619585438		0.97496906		-1.981578436
Al		-0.486454814		1.065541853		1.258792136
Al		-3.351709519		0.384122989		-2.001692042
F		-3.432923761		0.341946808		-3.292767708
F		-1.239696357		-0.520549601		-1.833056945
F		-1.802901387		2.085451403		-1.882759583
F		-1.983474725		0.727141739		0.479249624
F		0.697786827		1.295909143		-0.081892011
F		-0.297867775		2.764361997		1.998346147
F		0.380767015		-0.375746958		2.058232945
F		-4.122052292		0.24195377		-0.726754365
F		0.789518727		1.254826837		-3.275388729
12
-186.56215295
Al		-0.656094038		0.96663716		-2.004736336
Al		-0.491965914		1.064288453		1.255524636
Al		-3.399107719		0.373490089		-2.022103342
F		-3.418811861		0.345833008		-3.248916308
F		-1.220052957		-0.514608501		-1.831738845
F		-1.782568287		2.088201403		-1.881380583
F		-1.976219925		0.728773739		0.482610224
F		0.712268327		1.299618843		-0.051480711
F		-0.297303575		2.767967197		1.999417347
F		0.382760715		-0.378756058		2.059430245
F		-4.099953492		0.24633207		-0.747604765
F		0.795591027		1.256026137		-3.281314829
12
-186.56215295
Al		-0.692602638		0.95830526		-2.027894236
Al		-0.497477014		1.063035053		1.252257136
Al		-3.446505919		0.362857189		-2.042514642
F		-3.404699961		0.349719208		-3.205064908
F		-1.200409557		-0.508667401		-1.830420745
F		-1.762235187		2.090951403		-1.880001583
F		-1.968965125		0.730405739		0.485970824
F		0.726749827		1.303328543		-0.021069411
F		-0.296739375		2.771572397		2.000488547
F		0.384754415		-0.381765158		2.060627545
F		-4.077854692		0.25071037		-0.768455165
F		0.801663327		1.257225437		-3.287240929
