12
Properties=species:S:1:pos:R:3:forces:R:3 energy=-186.34728580 pbc="F F F"
Al    -1.566626061    2.8614992200000002    -1.212346691    0.043414    0.021146    -0.000643
Al    -0.335042355    0.297936006    -2.253587974    0.174279    0.027984    0.016812
Al    -2.1522295760000003    -0.03654851800000003    -0.554983637    -0.22536    -0.036031    0.021743
F    -0.706059741    3.9257342360000003    -0.078603057    0.025731    0.029377    0.032655
F    -2.827894047    3.446600793    -2.384328792    -0.060084    0.024506    -0.052164
F    -1.26798788    -1.421587427    -1.7065909609999999    -0.001075    -0.035797    -0.008522
F    -2.5075865619999997    1.7033914829999999    0.007917562    -0.022787    -0.016833    0.040021
F    -3.2882567629999997    -1.046183032    0.494969453    -0.013988    -0.016871    0.035863
F    0.8672707980000001    -0.26921814099999997    -3.4905231039999998    0.039031    -0.013062    -0.060606
F    -0.154514325    2.143348714    -2.248872231    0.021171    -0.004465    -0.01764
F    -2.289023357    0.739899351    -2.349952428    -0.093371    0.002594    0.000175
F    -0.265062368    0.396251239    -0.306619608    0.113038    0.017451    -0.007694
