      12
SCF Done            -167.62714138
Al           -1.693492989         2.560751085        -1.237191606
Al           -0.461560570        -0.003355796        -2.276822556
Al           -2.278796986        -0.336920312        -0.578092249
F            -0.812676080         3.673988311        -0.099988573
F            -2.934374370         3.193538466        -2.405545919
F            -1.374022688        -1.674187837        -1.725269354
F            -2.613995280         1.451583910        -0.012400015
F            -3.394421730        -1.297780546         0.476025764
F             0.761201490        -0.522604860        -3.509711600
F            -0.260869093         1.890527922        -2.269328122
F            -2.395242557         0.486897351        -2.369770028
F            -0.371327963         0.144427180        -0.326189188
