      12
SCF Done            -167.62722707
Al           -1.707787389         2.557971885        -1.223242806
Al           -0.601158170         0.004352204        -2.418036156
Al           -2.123188986        -0.341507512        -0.452559449
F            -0.702188880         3.697457111        -0.223612573
F            -3.100035970         3.159045666        -2.225729119
F            -1.380540288        -1.675810237        -1.716084554
F            -2.437974480         1.447738310         0.118903185
F            -3.100144130        -1.308384546         0.728778564
F             0.481475090        -0.509301660        -3.775627600
F            -0.409878693         1.900219922        -2.431721722
F            -2.514541757         0.461846951        -2.238600428
F            -0.233944763         0.173171180        -0.476419588
