12
Properties=species:S:1:pos:R:3:forces:R:3 energy=-187.33352242 pbc="F F F"
Al    1.5274671800000001    0.118462217    2.4100816729999996    1.033341    0.778009    0.228581
Al    1.3293446    1.1159989    -0.18059509999999998    -0.031574    0.080325    -0.157422
Al    -0.602777962    0.82473125    -2.191585473    -0.861625    -0.938129    0.393879
F    -2.2022127719999998    -0.031707952999999955    -1.8078141060000001    0.457488    0.44815    -0.100994
F    2.126421353    -0.405850753    0.697691152    -0.009846    -0.111749    0.064033
F    -0.154918161    1.59607079    -3.825102733    0.131712    0.351498    -0.507908
F    -0.25668001    2.0997904530000002    -0.793837649    0.0625    0.10092    0.070589
F    2.742569257    2.205244912    -0.609578743    0.076752    0.068228    -0.004886
F    0.9600038390000001    -0.187373395    -1.562903354    0.135752    0.016922    0.03224
F    0.628577417    1.589278129    1.5668552390000001    -0.075634    -0.024995    0.062673
F    2.8540261690000004    0.677425376    3.474008037    -0.364243    -0.197211    -0.268267
F    0.22548937500000002    -1.0979138519999998    2.937340171    -0.554622    -0.571968    0.187481
