      12
SCF Done            -187.33352242
Al            1.456711180         0.194606217         2.446060673
Al            1.251932600         1.204913900        -0.139057100
Al           -0.465930962         0.672945250        -2.263106473
F            -1.748219772        -0.547239953        -2.048246106
F             2.136592353        -0.276539753         0.735282152
F            -0.181774161         1.632742790        -3.809356733
F            -0.439680010         1.861565453        -0.763966649
F             2.513775257         2.467672912        -0.487255743
F             1.201631839        -0.012721395        -1.622474354
F             0.495278417         1.597745129         1.593790239
F             2.731938169         0.810577376         3.538368037
F             0.227225375        -1.104654852         2.933374171
