12
-186.56215295
Al		-0.369087838		1.05671766		-1.819919936
Al		-0.447458281		1.072378491		1.281701601
Al		-3.008603003		0.406178678		-1.857814309
F		-3.542193755		0.363265836		-3.600653161
F		-1.342065658		-0.570937604		-1.829879338
F		-1.973502493		2.043236689		-1.904211261
F		-2.036729177		0.727151255		0.455507309
F		0.598610916		1.259787197		-0.294577475
F		-0.305096081		2.738099004		1.989854171
F		0.370213708		-0.354227771		2.050856158
F		-4.282746067		0.239078726		-0.581331413
F		0.748835219		1.237998603		-3.233745244
