12
-186.56215295
Al		-0.36463275		1.036103396		-1.819526752
Al		-0.447826737		1.074083227		1.281669041
Al		-3.018563811		0.452268326		-1.858693341
F		-3.532965459		0.320566036		-3.599838809
F		-1.372984018		-0.56319334		-1.84079521
F		-1.948625421		2.063445625		-1.893828581
F		-2.034554697		0.717089863		0.455699149
F		0.596679756		1.268722805		-0.294747931
F		-0.302210473		2.739002412		1.990728539
F		0.367219508		-0.354628611		2.049972286
F		-4.277464043		0.214638486		-0.580865277
F		0.747231331		1.245419731		-3.233886748
