12
-186.56215295
Al		-0.364987132		1.037743167		-1.819558028
Al		-0.447797428		1.073947623		1.281671631
Al		-3.017771474		0.448602104		-1.858623418
F		-3.533699528		0.323962611		-3.599903587
F		-1.370524603		-0.563809361		-1.839926902
F		-1.950604279		2.061838096		-1.894654476
F		-2.034727667		0.717890201		0.455683889
F		0.596833371		1.268012018		-0.294734372
F		-0.30244001		2.73893055		1.990658987
F		0.367457683		-0.354596726		2.050042594
F		-4.277884204		0.216582596		-0.580902356
F		0.747358913		1.244829414		-3.233875492
