12
-186.56215295
Al		-0.365088384		1.038211673		-1.819566964
Al		-0.447789054		1.073908879		1.281672371
Al		-3.017545092		0.447554612		-1.85860344
F		-3.533909262		0.324933061		-3.599922095
F		-1.369821913		-0.563985367		-1.839678814
F		-1.951169667		2.061378802		-1.894890446
F		-2.034777087		0.718118869		0.455679529
F		0.596877261		1.267808936		-0.294730498
F		-0.302505592		2.738910018		1.990639115
F		0.367525733		-0.354587616		2.050062682
F		-4.27800425		0.217138056		-0.58091295
F		0.747395365		1.244660752		-3.233872276
