12
-186.56215295
Al		-0.36539214		1.039617191		-1.819593772
Al		-0.447763932		1.073792647		1.281674591
Al		-3.016865946		0.444412136		-1.858543506
F		-3.534538464		0.327844411		-3.599977619
F		-1.367713843		-0.564513385		-1.83893455
F		-1.952865831		2.06000092		-1.895598356
F		-2.034925347		0.718804873		0.455666449
F		0.597008931		1.26719969		-0.294718876
F		-0.302702338		2.738848422		1.990579499
F		0.367729883		-0.354560286		2.050122946
F		-4.278364388		0.218804436		-0.580944732
F		0.747504721		1.244154766		-3.233862628
