12
-186.56215295
Al		-0.364177116		1.033995119		-1.81948654
Al		-0.44786442		1.074257575		1.281665711
Al		-3.01958253		0.45698204		-1.858783242
F		-3.532021656		0.316199011		-3.599755523
F		-1.376146123		-0.562401313		-1.841911606
F		-1.946081175		2.065512448		-1.892766716
F		-2.034332307		0.716060857		0.455718769
F		0.596482251		1.269636674		-0.294765364
F		-0.301915354		2.739094806		1.990817963
F		0.366913283		-0.354669606		2.04988189
F		-4.276923836		0.212138916		-0.580817604
F		0.747067297		1.24617871		-3.23390122
