12
-186.56215295
Al		-0.365594644		1.040554203		-1.819611644
Al		-0.447747184		1.073715159		1.281676071
Al		-3.016413182		0.442317152		-1.85850355
F		-3.534957932		0.329785311		-3.600014635
F		-1.366308463		-0.564865397		-1.838438374
F		-1.953996607		2.059082332		-1.896070296
F		-2.035024187		0.719262209		0.455657729
F		0.597096711		1.266793526		-0.294711128
F		-0.302833502		2.738807358		1.990539755
F		0.367865983		-0.354542066		2.050163122
F		-4.27860448		0.219915356		-0.58096592
F		0.747577625		1.243817442		-3.233856196
