12
-186.56215295
Al		-0.365695896		1.041022709		-1.81962058
Al		-0.44773881		1.073676415		1.281676811
Al		-3.0161868		0.44126966		-1.858483572
F		-3.535167666		0.330755761		-3.600033143
F		-1.365605773		-0.565041403		-1.838190286
F		-1.954561995		2.058623038		-1.896306266
F		-2.035073607		0.719490877		0.455653369
F		0.597140601		1.266590444		-0.294707254
F		-0.302899084		2.738786826		1.990519883
F		0.367934033		-0.354532956		2.05018321
F		-4.278724526		0.220470816		-0.580976514
F		0.747614077		1.24364878		-3.23385298
