12
-186.56215295
Al		-0.365797148		1.041491215		-1.819629516
Al		-0.447730436		1.073637671		1.281677551
Al		-3.015960418		0.440222168		-1.858463594
F		-3.5353774		0.331726211		-3.600051651
F		-1.364903083		-0.565217409		-1.837942198
F		-1.955127383		2.058163744		-1.896542236
F		-2.035123027		0.719719545		0.455649009
F		0.597184491		1.266387362		-0.29470338
F		-0.302964666		2.738766294		1.990500011
F		0.368002083		-0.354523846		2.050203298
F		-4.278844572		0.221026276		-0.580987108
F		0.747650529		1.243480118		-3.233849764
