12
-186.56215295
Al		-0.364227742		1.034229372		-1.819491008
Al		-0.447860233		1.074238203		1.281666081
Al		-3.019469339		0.456458294		-1.858773253
F		-3.532126523		0.316684236		-3.599764777
F		-1.375794778		-0.562489316		-1.841787562
F		-1.946363869		2.065282801		-1.892884701
F		-2.034357017		0.716175191		0.455716589
F		0.596504196		1.269535133		-0.294763427
F		-0.301948145		2.73908454		1.990808027
F		0.366947308		-0.354665051		2.049891934
F		-4.276983859		0.212416646		-0.580822901
F		0.747085523		1.246094379		-3.233899612
