12
-186.56215295
Al		-0.366050278		1.04266248		-1.819651856
Al		-0.447709501		1.073540811		1.281679401
Al		-3.015394463		0.437603438		-1.858413649
F		-3.535901735		0.334152336		-3.600097921
F		-1.363146358		-0.565657424		-1.837321978
F		-1.956540853		2.057015509		-1.897132161
F		-2.035246577		0.720291215		0.455638109
F		0.597294216		1.265879657		-0.294693695
F		-0.303128621		2.738714964		1.990450331
F		0.368172208		-0.354501071		2.050253518
F		-4.279144687		0.222414926		-0.581013593
F		0.747741659		1.243058463		-3.233841724
