12
-186.56215295
Al		-0.36615153		1.043130986		-1.819660792
Al		-0.447701127		1.073502067		1.281680141
Al		-3.015168081		0.436555946		-1.858393671
F		-3.536111469		0.335122786		-3.600116429
F		-1.362443668		-0.56583343		-1.83707389
F		-1.957106241		2.056556215		-1.897368131
F		-2.035295997		0.720519883		0.455633749
F		0.597338106		1.265676575		-0.294689821
F		-0.303194203		2.738694432		1.990430459
F		0.368240258		-0.354491961		2.050273606
F		-4.279264733		0.222970386		-0.581024187
F		0.747778111		1.242889801		-3.233838508
