12
-186.56215295
Al		-0.366252782		1.043599492		-1.819669728
Al		-0.447692753		1.073463323		1.281680881
Al		-3.014941699		0.435508454		-1.858373693
F		-3.536321203		0.336093236		-3.600134937
F		-1.361740978		-0.566009436		-1.836825802
F		-1.957671629		2.056096921		-1.897604101
F		-2.035345417		0.720748551		0.455629389
F		0.597381996		1.265473493		-0.294685947
F		-0.303259785		2.7386739		1.990410587
F		0.368308308		-0.354482851		2.050293694
F		-4.279384779		0.223525846		-0.581034781
F		0.747814563		1.242721139		-3.233835292
