12
-186.56215295
Al		-0.366455286		1.044536504		-1.8196876
Al		-0.447676005		1.073385835		1.281682361
Al		-3.014488935		0.43341347		-1.858333737
F		-3.536740671		0.338034136		-3.600171953
F		-1.360335598		-0.566361448		-1.836329626
F		-1.958802405		2.055178333		-1.898076041
F		-2.035444257		0.721205887		0.455620669
F		0.597469776		1.265067329		-0.294678199
F		-0.303390949		2.738632836		1.990370843
F		0.368444408		-0.354464631		2.05033387
F		-4.279624871		0.224636766		-0.581055969
F		0.747887467		1.242383815		-3.23382886
