12
-186.56215295
Al		-0.366505912		1.044770757		-1.819692068
Al		-0.447671818		1.073366463		1.281682731
Al		-3.014375744		0.432889724		-1.858323748
F		-3.536845538		0.338519361		-3.600181207
F		-1.359984253		-0.566449451		-1.836205582
F		-1.959085099		2.054948686		-1.898194026
F		-2.035468967		0.721320221		0.455618489
F		0.597491721		1.264965788		-0.294676262
F		-0.30342374		2.73862257		1.990360907
F		0.368478433		-0.354460076		2.050343914
F		-4.279684894		0.224914496		-0.581061266
F		0.747905693		1.242299484		-3.233827252
