12
-186.56215295
Al		-0.366556538		1.04500501		-1.819696536
Al		-0.447667631		1.073347091		1.281683101
Al		-3.014262553		0.432365978		-1.858313759
F		-3.536950405		0.339004586		-3.600190461
F		-1.359632908		-0.566537454		-1.836081538
F		-1.959367793		2.054719039		-1.898312011
F		-2.035493677		0.721434555		0.455616309
F		0.597513666		1.264864247		-0.294674325
F		-0.303456531		2.738612304		1.990350971
F		0.368512458		-0.354455521		2.050353958
F		-4.279744917		0.225192226		-0.581066563
F		0.747923919		1.242215153		-3.233825644
