12
-186.56215295
Al		-0.366708416		1.045707769		-1.81970994
Al		-0.44765507		1.073288975		1.281684211
Al		-3.01392298		0.43079474		-1.858283792
F		-3.537265006		0.340460261		-3.600218223
F		-1.358578873		-0.566801463		-1.835709406
F		-1.960215875		2.054030098		-1.898665966
F		-2.035567807		0.721777557		0.455609769
F		0.597579501		1.264559624		-0.294668514
F		-0.303554904		2.738581506		1.990321163
F		0.368614533		-0.354441856		2.05038409
F		-4.279924986		0.226025416		-0.581082454
F		0.747978597		1.24196216		-3.23382082
