12
-186.56215295
Al		-0.367214676		1.048050299		-1.81975462
Al		-0.4476132		1.073095255		1.281687911
Al		-3.01279107		0.42555728		-1.858183902
F		-3.538313676		0.345312511		-3.600310763
F		-1.355065423		-0.567681493		-1.834468966
F		-1.963042815		2.051733628		-1.899845816
F		-2.035814907		0.722920897		0.455587969
F		0.597798951		1.263544214		-0.294649144
F		-0.303882814		2.738478846		1.990221803
F		0.368954783		-0.354396306		2.05048453
F		-4.280525216		0.228802716		-0.581135424
F		0.748160857		1.24111885		-3.23380474
