12
-186.56215295
Al		-0.36741718		1.048987311		-1.819772492
Al		-0.447596452		1.073017767		1.281689391
Al		-3.012338306		0.423462296		-1.858143946
F		-3.538733144		0.347253411		-3.600347779
F		-1.353660043		-0.568033505		-1.83397279
F		-1.964173591		2.05081504		-1.900317756
F		-2.035913747		0.723378233		0.455579249
F		0.597886731		1.26313805		-0.294641396
F		-0.304013978		2.738437782		1.990182059
F		0.369090883		-0.354378086		2.050524706
F		-4.280765308		0.229913636		-0.581156612
F		0.748233761		1.240781526		-3.233798308
