12
-186.56215295
Al		-0.367467806		1.049221564		-1.81977696
Al		-0.447592265		1.072998395		1.281689761
Al		-3.012225115		0.42293855		-1.858133957
F		-3.538838011		0.347738636		-3.600357033
F		-1.353308698		-0.568121508		-1.833848746
F		-1.964456285		2.050585393		-1.900435741
F		-2.035938457		0.723492567		0.455577069
F		0.597908676		1.263036509		-0.294639459
F		-0.304046769		2.738427516		1.990172123
F		0.369124908		-0.354373531		2.05053475
F		-4.280825331		0.230191366		-0.581161909
F		0.748251987		1.240697195		-3.2337967
