12
-186.56215295
Al		-0.367518432		1.049455817		-1.819781428
Al		-0.447588078		1.072979023		1.281690131
Al		-3.012111924		0.422414804		-1.858123968
F		-3.538942878		0.348223861		-3.600366287
F		-1.352957353		-0.568209511		-1.833724702
F		-1.964738979		2.050355746		-1.900553726
F		-2.035963167		0.723606901		0.455574889
F		0.597930621		1.262934968		-0.294637522
F		-0.30407956		2.73841725		1.990162187
F		0.369158933		-0.354368976		2.050544794
F		-4.280885354		0.230469096		-0.581167206
F		0.748270213		1.240612864		-3.233795092
