12
-186.56215295
Al		-0.36437962		1.034932131		-1.819504412
Al		-0.447847672		1.074180087		1.281667191
Al		-3.019129766		0.454887056		-1.858743286
F		-3.532441124		0.318139911		-3.599792539
F		-1.374740743		-0.562753325		-1.84141543
F		-1.947211951		2.06459386		-1.893238656
F		-2.034431147		0.716518193		0.455710049
F		0.596570031		1.26923051		-0.294757616
F		-0.302046518		2.739053742		1.990778219
F		0.367049383		-0.354651386		2.049922066
F		-4.277163928		0.213249836		-0.580838792
F		0.747140201		1.245841386		-3.233894788
