12
-186.56215295
Al		-0.367872814		1.051095588		-1.819812704
Al		-0.447558769		1.072843419		1.281692721
Al		-3.011319587		0.418748582		-1.858054045
F		-3.539676947		0.351620436		-3.600431065
F		-1.350497938		-0.568825532		-1.832856394
F		-1.966717837		2.048748217		-1.901379621
F		-2.036136137		0.724407239		0.455559629
F		0.598084236		1.262224181		-0.294623963
F		-0.304309097		2.738345388		1.990092635
F		0.369397108		-0.354337091		2.050615102
F		-4.281305515		0.232413206		-0.581204285
F		0.748397795		1.240022547		-3.233783836
