12
-186.56215295
Al		-0.36792344		1.051329841		-1.819817172
Al		-0.447554582		1.072824047		1.281693091
Al		-3.011206396		0.418224836		-1.858044056
F		-3.539781814		0.352105661		-3.600440319
F		-1.350146593		-0.568913535		-1.83273235
F		-1.967000531		2.04851857		-1.901497606
F		-2.036160847		0.724521573		0.455557449
F		0.598106181		1.26212264		-0.294622026
F		-0.304341888		2.738335122		1.990082699
F		0.369431133		-0.354332536		2.050625146
F		-4.281365538		0.232690936		-0.581209582
F		0.748416021		1.239938216		-3.233782228
