12
-186.56215295
Al		-0.368125944		1.052266853		-1.819835044
Al		-0.447537834		1.072746559		1.281694571
Al		-3.010753632		0.416129852		-1.8580041
F		-3.540201282		0.354046561		-3.600477335
F		-1.348741213		-0.569265547		-1.832236174
F		-1.968131307		2.047599982		-1.901969546
F		-2.036259687		0.724978909		0.455548729
F		0.598193961		1.261716476		-0.294614278
F		-0.304473052		2.738294058		1.990042955
F		0.369567233		-0.354314316		2.050665322
F		-4.28160563		0.233801856		-0.58123077
F		0.748488925		1.239600892		-3.233775796
