12
-186.56215295
Al		-0.3684297		1.053672371		-1.819861852
Al		-0.447512712		1.072630327		1.281696791
Al		-3.010074486		0.412987376		-1.857944166
F		-3.540830484		0.356957911		-3.600532859
F		-1.346633143		-0.569793565		-1.83149191
F		-1.969827471		2.0462221		-1.902677456
F		-2.036407947		0.725664913		0.455535649
F		0.598325631		1.26110723		-0.294602656
F		-0.304669798		2.738232462		1.989983339
F		0.369771383		-0.354286986		2.050725586
F		-4.281965768		0.235468236		-0.581262552
F		0.748598281		1.239094906		-3.233766148
