12
-186.56215295
Al		-0.364480872		1.035400637		-1.819513348
Al		-0.447839298		1.074141343		1.281667931
Al		-3.018903384		0.453839564		-1.858723308
F		-3.532650858		0.319110361		-3.599811047
F		-1.374038053		-0.562929331		-1.841167342
F		-1.947777339		2.064134566		-1.893474626
F		-2.034480567		0.716746861		0.455705689
F		0.596613921		1.269027428		-0.294753742
F		-0.3021121		2.73903321		1.990758347
F		0.367117433		-0.354642276		2.049942154
F		-4.277283974		0.213805296		-0.580849386
F		0.747176653		1.245672724		-3.233891572
