12
-186.56215295
Al		-0.368784082		1.055312142		-1.819893128
Al		-0.447483403		1.072494723		1.281699381
Al		-3.009282149		0.409321154		-1.857874243
F		-3.541564553		0.360354486		-3.600597637
F		-1.344173728		-0.570409586		-1.830623602
F		-1.971806329		2.044614571		-1.903503351
F		-2.036580917		0.726465251		0.455520389
F		0.598479246		1.260396443		-0.294589097
F		-0.304899335		2.7381606		1.989913787
F		0.370009558		-0.354255101		2.050795894
F		-4.282385929		0.237412346		-0.581299631
F		0.748725863		1.238504589		-3.233754892
