12
-186.56215295
Al		-0.363316474		1.030012818		-1.819410584
Al		-0.447935599		1.074586899		1.281659421
Al		-3.021506777		0.465885722		-1.858953055
F		-3.530238917		0.307950186		-3.599598205
F		-1.382118988		-0.560905262		-1.844020354
F		-1.941275377		2.069416447		-1.890760971
F		-2.033912237		0.714117179		0.455755829
F		0.596109186		1.271362871		-0.294798293
F		-0.301357907		2.739269328		1.990986875
F		0.366334858		-0.354747041		2.049711142
F		-4.275903445		0.207417506		-0.580727555
F		0.746757455		1.247612337		-3.233928556
