12
-186.56215295
Al		-0.362962092		1.028373047		-1.819379308
Al		-0.447964908		1.074722503		1.281656831
Al		-3.022299114		0.469551944		-1.859022978
F		-3.529504848		0.304553611		-3.599533427
F		-1.384578403		-0.560289241		-1.844888662
F		-1.939296519		2.071023976		-1.889935076
F		-2.033739267		0.713316841		0.455771089
F		0.595955571		1.272073658		-0.294811852
F		-0.30112837		2.73934119		1.991056427
F		0.366096683		-0.354778926		2.049640834
F		-4.275483284		0.205473396		-0.580690476
F		0.746629873		1.248202654		-3.233939812
