12
-186.56215295
Al		-0.362708962		1.027201782		-1.819356968
Al		-0.447985843		1.074819363		1.281654981
Al		-3.022865069		0.472170674		-1.859072923
F		-3.528980513		0.302127486		-3.599487157
F		-1.386335128		-0.559849226		-1.845508882
F		-1.937883049		2.072172211		-1.889345151
F		-2.033615717		0.712745171		0.455781989
F		0.595845846		1.272581363		-0.294821537
F		-0.300964415		2.73939252		1.991106107
F		0.365926558		-0.354801701		2.049590614
F		-4.275183169		0.204084746		-0.580663991
F		0.746538743		1.248624309		-3.233947852
