12
-186.56215295
Al		-0.362506458		1.02626477		-1.819339096
Al		-0.448002591		1.074896851		1.281653501
Al		-3.023317833		0.474265658		-1.859112879
F		-3.528561045		0.300186586		-3.599450141
F		-1.387740508		-0.559497214		-1.846005058
F		-1.936752273		2.073090799		-1.888873211
F		-2.033516877		0.712287835		0.455790709
F		0.595758066		1.272987527		-0.294829285
F		-0.300833251		2.739433584		1.991145851
F		0.365790458		-0.354819921		2.049550438
F		-4.274943077		0.202973826		-0.580642803
F		0.746465839		1.248961633		-3.233954284
