12
-186.56215295
Al		-0.362303954		1.025327758		-1.819321224
Al		-0.448019339		1.074974339		1.281652021
Al		-3.023770597		0.476360642		-1.859152835
F		-3.528141577		0.298245686		-3.599413125
F		-1.389145888		-0.559145202		-1.846501234
F		-1.935621497		2.074009387		-1.888401271
F		-2.033418037		0.711830499		0.455799429
F		0.595670286		1.273393691		-0.294837033
F		-0.300702087		2.739474648		1.991185595
F		0.365654358		-0.354838141		2.049510262
F		-4.274702985		0.201862906		-0.580621615
F		0.746392935		1.249298957		-3.233960716
