12
-186.56215295
Al		-0.36210145		1.024390746		-1.819303352
Al		-0.448036087		1.075051827		1.281650541
Al		-3.024223361		0.478455626		-1.859192791
F		-3.527722109		0.296304786		-3.599376109
F		-1.390551268		-0.55879319		-1.84699741
F		-1.934490721		2.074927975		-1.887929331
F		-2.033319197		0.711373163		0.455808149
F		0.595582506		1.273799855		-0.294844781
F		-0.300570923		2.739515712		1.991225339
F		0.365518258		-0.354856361		2.049470086
F		-4.274462893		0.200751986		-0.580600427
F		0.746320031		1.249636281		-3.233967148
