12
-186.56215295
Al		-0.362000198		1.02392224		-1.819294416
Al		-0.448044461		1.075090571		1.281649801
Al		-3.024449743		0.479503118		-1.859212769
F		-3.527512375		0.295334336		-3.599357601
F		-1.391253958		-0.558617184		-1.847245498
F		-1.933925333		2.075387269		-1.887693361
F		-2.033269777		0.711144495		0.455812509
F		0.595538616		1.274002937		-0.294848655
F		-0.300505341		2.739536244		1.991245211
F		0.365450208		-0.354865471		2.049449998
F		-4.274342847		0.200196526		-0.580589833
F		0.746283579		1.249804943		-3.233970364
