12
-186.56215295
Al		-0.361898946		1.023453734		-1.81928548
Al		-0.448052835		1.075129315		1.281649061
Al		-3.024676125		0.48055061		-1.859232747
F		-3.527302641		0.294363886		-3.599339093
F		-1.391956648		-0.558441178		-1.847493586
F		-1.933359945		2.075846563		-1.887457391
F		-2.033220357		0.710915827		0.455816869
F		0.595494726		1.274206019		-0.294852529
F		-0.300439759		2.739556776		1.991265083
F		0.365382158		-0.354874581		2.04942991
F		-4.274222801		0.199641066		-0.580579239
F		0.746247127		1.249973605		-3.23397358
