12
-186.56215295
Al		-0.36159519		1.022048216		-1.819258672
Al		-0.448077957		1.075245547		1.281646841
Al		-3.025355271		0.483693086		-1.859292681
F		-3.526673439		0.291452536		-3.599283569
F		-1.394064718		-0.55791316		-1.84823785
F		-1.931663781		2.077224445		-1.886749481
F		-2.033072097		0.710229823		0.455829949
F		0.595363056		1.274815265		-0.294864151
F		-0.300243013		2.739618372		1.991324699
F		0.365178008		-0.354901911		2.049369646
F		-4.273862663		0.197974686		-0.580547457
F		0.746137771		1.250479591		-3.233983228
