12
-186.56215295
Al		-0.361493938		1.02157971		-1.819249736
Al		-0.448086331		1.075284291		1.281646101
Al		-3.025581653		0.484740578		-1.859312659
F		-3.526463705		0.290482086		-3.599265061
F		-1.394767408		-0.557737154		-1.848485938
F		-1.931098393		2.077683739		-1.886513511
F		-2.033022677		0.710001155		0.455834309
F		0.595319166		1.275018347		-0.294868025
F		-0.300177431		2.739638904		1.991344571
F		0.365109958		-0.354911021		2.049349558
F		-4.273742617		0.197419226		-0.580536863
F		0.746101319		1.250648253		-3.233986444
