12
-186.56215295
Al		-0.361443312		1.021345457		-1.819245268
Al		-0.448090518		1.075303663		1.281645731
Al		-3.025694844		0.485264324		-1.859322648
F		-3.526358838		0.289996861		-3.599255807
F		-1.395118753		-0.557649151		-1.848609982
F		-1.930815699		2.077913386		-1.886395526
F		-2.032997967		0.709886821		0.455836489
F		0.595297221		1.275119888		-0.294869962
F		-0.30014464		2.73964917		1.991354507
F		0.365075933		-0.354915576		2.049339514
F		-4.273682594		0.197141496		-0.580531566
F		0.746083093		1.250732584		-3.233988052
