12
-186.56215295
Al		-0.361392686		1.021111204		-1.8192408
Al		-0.448094705		1.075323035		1.281645361
Al		-3.025808035		0.48578807		-1.859332637
F		-3.526253971		0.289511636		-3.599246553
F		-1.395470098		-0.557561148		-1.848734026
F		-1.930533005		2.078143033		-1.886277541
F		-2.032973257		0.709772487		0.455838669
F		0.595275276		1.275221429		-0.294871899
F		-0.300111849		2.739659436		1.991364443
F		0.365041908		-0.354920131		2.04932947
F		-4.273622571		0.196863766		-0.580526269
F		0.746064867		1.250816915		-3.23398966
