12
-186.56215295
Al		-0.36108893		1.019705686		-1.819213992
Al		-0.448119827		1.075439267		1.281643141
Al		-3.026487181		0.488930546		-1.859392571
F		-3.525624769		0.286600286		-3.599191029
F		-1.397578168		-0.55703313		-1.84947829
F		-1.928836841		2.079520915		-1.885569631
F		-2.032824997		0.709086483		0.455851749
F		0.595143606		1.275830675		-0.294883521
F		-0.299915103		2.739721032		1.991424059
F		0.364837758		-0.354947461		2.049269206
F		-4.273262433		0.195197386		-0.580494487
F		0.745955511		1.251322901		-3.233999308
