12
-186.56215295
Al		-0.360785174		1.018300168		-1.819187184
Al		-0.448144949		1.075555499		1.281640921
Al		-3.027166327		0.492073022		-1.859452505
F		-3.524995567		0.283688936		-3.599135505
F		-1.399686238		-0.556505112		-1.850222554
F		-1.927140677		2.080898797		-1.884861721
F		-2.032676737		0.708400479		0.455864829
F		0.595011936		1.276439921		-0.294895143
F		-0.299718357		2.739782628		1.991483675
F		0.364633608		-0.354974791		2.049208942
F		-4.272902295		0.193531006		-0.580462705
F		0.745846155		1.251828887		-3.234008956
