12
-186.56215295
Al		-0.360633296		1.017597409		-1.81917378
Al		-0.44815751		1.075613615		1.281639811
Al		-3.0275059		0.49364426		-1.859482472
F		-3.524680966		0.282233261		-3.599107743
F		-1.400740273		-0.556241103		-1.850594686
F		-1.926292595		2.081587738		-1.884507766
F		-2.032602607		0.708057477		0.455871369
F		0.594946101		1.276744544		-0.294900954
F		-0.299619984		2.739813426		1.991513483
F		0.364531533		-0.354988456		2.04917881
F		-4.272722226		0.192697816		-0.580446814
F		0.745791477		1.25208188		-3.23401378
