12
-186.56215295
Al		-0.360532044		1.017128903		-1.819164844
Al		-0.448165884		1.075652359		1.281639071
Al		-3.027732282		0.494691752		-1.85950245
F		-3.524471232		0.281262811		-3.599089235
F		-1.401442963		-0.556065097		-1.850842774
F		-1.925727207		2.082047032		-1.884271796
F		-2.032553187		0.707828809		0.455875729
F		0.594902211		1.276947626		-0.294904828
F		-0.299554402		2.739833958		1.991533355
F		0.364463483		-0.354997566		2.049158722
F		-4.27260218		0.192142356		-0.58043622
F		0.745755025		1.252250542		-3.234016996
