12
-186.56215295
Al		-0.363670856		1.031652589		-1.81944186
Al		-0.44790629		1.074451295		1.281662011
Al		-3.02071444		0.4622195		-1.858883132
F		-3.530972986		0.311346761		-3.599662983
F		-1.379659573		-0.561521283		-1.843152046
F		-1.943254235		2.067808918		-1.891586866
F		-2.034085207		0.714917517		0.455740569
F		0.596262801		1.270652084		-0.294784734
F		-0.301587444		2.739197466		1.990917323
F		0.366573033		-0.354715156		2.04978145
F		-4.276323606		0.209361616		-0.580764634
F		0.746885037		1.24702202		-3.2339173
