12
-186.56215295
Al		-0.360430792		1.016660397		-1.819155908
Al		-0.448174258		1.075691103		1.281638331
Al		-3.027958664		0.495739244		-1.859522428
F		-3.524261498		0.280292361		-3.599070727
F		-1.402145653		-0.555889091		-1.851090862
F		-1.925161819		2.082506326		-1.884035826
F		-2.032503767		0.707600141		0.455880089
F		0.594858321		1.277150708		-0.294908702
F		-0.29948882		2.73985449		1.991553227
F		0.364395433		-0.355006676		2.049138634
F		-4.272482134		0.191586896		-0.580425626
F		0.745718573		1.252419204		-3.234020212
