12
-186.56215295
Al		-0.360380166		1.016426144		-1.81915144
Al		-0.448178445		1.075710475		1.281637961
Al		-3.028071855		0.49626299		-1.859532417
F		-3.524156631		0.279807136		-3.599061473
F		-1.402496998		-0.555801088		-1.851214906
F		-1.924879125		2.082735973		-1.883917841
F		-2.032479057		0.707485807		0.455882269
F		0.594836376		1.277252249		-0.294910639
F		-0.299456029		2.739864756		1.991563163
F		0.364361408		-0.355011231		2.04912859
F		-4.272422111		0.191309166		-0.580420329
F		0.745700347		1.252503535		-3.23402182
