12
-186.56215295
Al		-0.36032954		1.016191891		-1.819146972
Al		-0.448182632		1.075729847		1.281637591
Al		-3.028185046		0.496786736		-1.859542406
F		-3.524051764		0.279321911		-3.599052219
F		-1.402848343		-0.555713085		-1.85133895
F		-1.924596431		2.08296562		-1.883799856
F		-2.032454347		0.707371473		0.455884449
F		0.594814431		1.27735379		-0.294912576
F		-0.299423238		2.739875022		1.991573099
F		0.364327383		-0.355015786		2.049118546
F		-4.272362088		0.191031436		-0.580415032
F		0.745682121		1.252587866		-3.234023428
