12
-186.56215295
Al		-0.359975158		1.01455212		-1.819115696
Al		-0.448211941		1.075865451		1.281635001
Al		-3.028977383		0.500452958		-1.859612329
F		-3.523317695		0.275925336		-3.598987441
F		-1.405307758		-0.555097064		-1.852207258
F		-1.922617573		2.084573149		-1.882973961
F		-2.032281377		0.706571135		0.455899709
F		0.594660816		1.278064577		-0.294926135
F		-0.299193701		2.739946884		1.991642651
F		0.364089208		-0.355047671		2.049048238
F		-4.271941927		0.189087326		-0.580377953
F		0.745554539		1.253178183		-3.234034684
