12
-186.56215295
Al		-0.359772654		1.013615108		-1.819097824
Al		-0.448228689		1.075942939		1.281633521
Al		-3.029430147		0.502547942		-1.859652285
F		-3.522898227		0.273984436		-3.598950425
F		-1.406713138		-0.554745052		-1.852703434
F		-1.921486797		2.085491737		-1.882502021
F		-2.032182537		0.706113799		0.455908429
F		0.594573036		1.278470741		-0.294933883
F		-0.299062537		2.739987948		1.991682395
F		0.363953108		-0.355065891		2.049008062
F		-4.271701835		0.187976406		-0.580356765
F		0.745481635		1.253515507		-3.234041116
