12
-186.56215295
Al		-0.359620776		1.012912349		-1.81908442
Al		-0.44824125		1.076001055		1.281632411
Al		-3.02976972		0.50411918		-1.859682252
F		-3.522583626		0.272528761		-3.598922663
F		-1.407767173		-0.554481043		-1.853075566
F		-1.920638715		2.086180678		-1.882148066
F		-2.032108407		0.705770797		0.455914969
F		0.594507201		1.278775364		-0.294939694
F		-0.298964164		2.740018746		1.991712203
F		0.363851033		-0.355079556		2.04897793
F		-4.271521766		0.187143216		-0.580340874
F		0.745426957		1.2537685		-3.23404594
