12
-186.56215295
Al		-0.35957015		1.012678096		-1.819079952
Al		-0.448245437		1.076020427		1.281632041
Al		-3.029882911		0.504642926		-1.859692241
F		-3.522478759		0.272043536		-3.598913409
F		-1.408118518		-0.55439304		-1.85319961
F		-1.920356021		2.086410325		-1.882030081
F		-2.032083697		0.705656463		0.455917149
F		0.594485256		1.278876905		-0.294941631
F		-0.298931373		2.740029012		1.991722139
F		0.363817008		-0.355084111		2.048967886
F		-4.271461743		0.186865486		-0.580335577
F		0.745408731		1.253852831		-3.234047548
