12
-186.56215295
Al		-0.363569604		1.031184083		-1.819432924
Al		-0.447914664		1.074490039		1.281661271
Al		-3.020940822		0.463266992		-1.85890311
F		-3.530763252		0.310376311		-3.599644475
F		-1.380362263		-0.561345277		-1.843400134
F		-1.942688847		2.068268212		-1.891350896
F		-2.034035787		0.714688849		0.455744929
F		0.596218911		1.270855166		-0.294788608
F		-0.301521862		2.739217998		1.990937195
F		0.366504983		-0.354724266		2.049761362
F		-4.27620356		0.208806156		-0.58075404
F		0.746848585		1.247190682		-3.233920516
