12
-186.56215295
Al		-0.359418272		1.011975337		-1.819066548
Al		-0.448257998		1.076078543		1.281630931
Al		-3.030222484		0.506214164		-1.859722208
F		-3.522164158		0.270587861		-3.598885647
F		-1.409172553		-0.554129031		-1.853571742
F		-1.919507939		2.087099266		-1.881676126
F		-2.032009567		0.705313461		0.455923689
F		0.594419421		1.279181528		-0.294947442
F		-0.298833		2.74005981		1.991751947
F		0.363714933		-0.355097776		2.048937754
F		-4.271281674		0.186032296		-0.580319686
F		0.745354053		1.254105824		-3.234052372
