12
-186.56215295
Al		-0.359367646		1.011741084		-1.81906208
Al		-0.448262185		1.076097915		1.281630561
Al		-3.030335675		0.50673791		-1.859732197
F		-3.522059291		0.270102636		-3.598876393
F		-1.409523898		-0.554041028		-1.853695786
F		-1.919225245		2.087328913		-1.881558141
F		-2.031984857		0.705199127		0.455925869
F		0.594397476		1.279283069		-0.294949379
F		-0.298800209		2.740070076		1.991761883
F		0.363680908		-0.355102331		2.04892771
F		-4.271221651		0.185754566		-0.580314389
F		0.745335827		1.254190155		-3.23405398
