12
-186.56215295
Al		-0.359215768		1.011038325		-1.819048676
Al		-0.448274746		1.076156031		1.281629451
Al		-3.030675248		0.508309148		-1.859762164
F		-3.52174469		0.268646961		-3.598848631
F		-1.410577933		-0.553777019		-1.854067918
F		-1.918377163		2.088017854		-1.881204186
F		-2.031910727		0.704856125		0.455932409
F		0.594331641		1.279587692		-0.29495519
F		-0.298701836		2.740100874		1.991791691
F		0.363578833		-0.355115996		2.048897578
F		-4.271041582		0.184921376		-0.580298498
F		0.745281149		1.254443148		-3.234058804
