12
-186.56215295
Al		-0.35906389		1.010335566		-1.819035272
Al		-0.448287307		1.076214147		1.281628341
Al		-3.031014821		0.509880386		-1.859792131
F		-3.521430089		0.267191286		-3.598820869
F		-1.411631968		-0.55351301		-1.85444005
F		-1.917529081		2.088706795		-1.880850231
F		-2.031836597		0.704513123		0.455938949
F		0.594265806		1.279892315		-0.294961001
F		-0.298603463		2.740131672		1.991821499
F		0.363476758		-0.355129661		2.048867446
F		-4.270861513		0.184088186		-0.580282607
F		0.745226471		1.254696141		-3.234063628
