12
Properties=species:S:1:pos:R:3:forces:R:3 energy=-187.37616231 pbc="F F F"
Al    1.26687018    0.213557417    2.491539473    0.439751    0.341107    0.075799
Al    1.1880624    1.2869561    -0.0655239    -0.022366    0.025783    -0.065005
Al    -0.208453162    0.56709625    -2.3879340730000003    -0.356144    -0.398182    0.185756
F    -1.308843572    -0.901158953    -2.353479106    0.216976    0.204607    -0.035797
F    2.149962153    -0.151399153    0.821247752    -0.013296    -0.039842    0.031581
F    -0.002349561    1.68703779    -3.827216933    0.06122    0.14506    -0.20018
F    -0.55260661    1.682617053    -0.806326449    0.034341    0.033122    0.02779
F    2.321755857    2.712794112    -0.26725714300000003    0.01592    0.01159    0.003508
F    1.485323639    0.136375205    -1.631177154    0.045881    0.015037    0.015696
F    0.27230081700000003    1.553415729    1.6026078389999998    -0.023977    -0.023569    0.027373
F    2.426476769    0.913122776    3.691752837    -0.167485    -0.085443    -0.131195
F    0.140257975    -1.197871852    2.846292971    -0.230819    -0.22927    0.064675
