12
Properties=species:S:1:pos:R:3:forces:R:3 energy=-186.35103317 pbc="F F F"
Al    -1.734875261    2.58506942    -1.256649291    0.0    -0.0    0.0
Al    -0.511164355    -0.021014794    -2.315855374    -0.0    -0.0    0.0
Al    -2.1640279760000003    -0.357314918    -0.502153837    0.0    -0.0    -0.0
F    -1.045600541    4.084795636    -0.350416657    -0.0    0.0    -0.0
F    -3.0976352470000004    2.918354993    -2.436762592    -0.0    0.0    -0.0
F    -1.6350744799999999    -1.660987027    -1.953010961    0.0    -0.0    0.0
F    -2.2069869619999998    1.447006083    0.22491756200000002    0.0    0.0    -0.0
F    -3.3130767629999998    -1.257486632    0.573436253    0.0    0.0    -0.0
F    0.577572398    -0.465875341    -3.6958075040000002    -0.0    0.0    0.0
F    -0.132240925    1.869144914    -2.051718031    -0.0    0.0    0.0
F    -2.3870201570000003    0.671698151    -2.2057442280000004    0.0    -0.0    0.0
F    -0.18400636799999998    -0.243891761    -0.36786240800000003    0.0    -0.0    0.0
