12
Properties=species:S:1:pos:R:3:forces:R:3 energy=-186.90087363 pbc="F F F"
Al    0.384661993    -0.795493158    1.5172161389999999    0.184518    -0.933265    -1.184295
Al    2.067112365    -1.7072066719999999    -0.42514549699999993    -1.519885    0.401841    0.454141
Al    -0.650315781    -1.742105358    -0.821025543    1.316577    0.438265    0.867363
F    3.225955107    -0.8018553930000001    -0.97886578    -0.490665    -0.676877    0.277347
F    -1.6254364540000001    -0.864160888    -1.6856251969999998    0.408019    -0.665334    0.408268
F    2.668500195    -3.1810116940000004    -0.502961843    -0.09908    0.826086    -0.036493
F    -1.167256566    -3.230272602    -1.0617615200000001    0.084567    0.828446    -0.009739
F    1.727701797    -1.350287393    1.014014202    -0.4796    0.198993    -0.597202
F    0.798044164    -1.602914482    -1.249169065    -0.106875    -0.322064    0.762013
F    0.165596152    -1.0274429630000002    3.0413920890000004    0.112676    0.33633    -0.803088
F    0.393107571    0.822576899    1.316604736    -0.03512    -0.645593    0.297987
F    -0.744633468    -1.382039383    0.653839614    0.624868    0.213176    -0.436302
