      12
SCF Done            -186.90087363
Al            0.355969993        -0.636420158         1.700146139
Al            2.296201365        -1.773028672        -0.503568497
Al           -0.845783781        -1.813380358        -0.961298543
F             3.439454107        -0.546564393        -1.091832780
F            -1.804189454        -0.613906888        -1.855736197
F             2.728509195        -3.500747694        -0.494614843
F            -1.219092566        -3.551445602        -1.069708520
F             1.869095797        -1.403223393         1.175570202
F             0.825627164        -1.527489482        -1.445157065
F             0.117257152        -1.147274963         3.383771089
F             0.403904571         1.086161899         1.219253736
F            -0.924860468        -1.439105383         0.768541614
