      12
SCF Done            -186.15688597
Al           -0.143697157         1.701278596         2.100348021
Al            2.507516596         2.699983525         1.881072075
Al            1.459435158         2.531806581        -0.612478153
F             0.926166852         3.106641519         2.931463332
F            -1.732625947         2.598144543         2.132631095
F            -0.382559960        -0.010863218         2.715487260
F             1.770655869         0.965289585         1.858115734
F             3.056840342         1.814517372        -0.033843954
F             1.027914214         3.057198952        -2.311239804
F             1.760159868         3.946610087         0.657994265
F             4.272960466         3.057009111         2.269807168
F            -0.079471400         1.893677868         0.201321505
