      12
SCF Done            -166.99664846
Al           -1.680099189         2.543936685        -1.214358006
Al           -0.543476370         0.013406004        -2.366373156
Al           -2.223171986        -0.328353312        -0.523229049
F            -0.584531680         3.446278911        -0.048630973
F            -2.968947170         3.331054266        -2.242962519
F            -1.222605688        -1.683406237        -1.581276554
F            -2.717383680         1.451254110        -0.049748615
F            -3.207806530        -1.330440146         0.619781764
F             0.647597890        -0.546000060        -3.610786800
F            -0.457253693         1.911111322        -2.529809122
F            -2.495615357         0.355976551        -2.363249828
F            -0.373814363         0.400413780        -0.421369588
