12
Properties=species:S:1:pos:R:3:forces:R:3 energy=-185.65114143 pbc="F F F"
Al    -0.368447638    0.89608756    -1.602974336    0.413745    -0.860023    -0.028147
Al    -0.775215314    1.073247853    1.440552636    -0.055374    0.111862    0.027485
Al    -3.043942719    0.837310889    -1.6906953420000002    0.325036    3.042348    0.786034
F    -3.202243861    0.040839408    -3.441623108    -0.071814    -1.777836    -1.473
F    -1.6062651570000002    -0.480220501    -2.171350045    -0.520281    -0.132738    -0.27101
F    -1.7447866870000002    2.3134546030000003    -2.187233983    0.375253    0.608668    0.214328
F    -2.047161325    0.533797339    0.12986442400000003    0.065763    -0.263787    0.002721
F    0.447084327    1.208662843    -0.020311311    0.013659    0.263362    0.115194
F    -0.0012465750000000275    2.7747741969999997    1.920313347    0.058347    -0.006763    0.007546
F    0.578026115    -0.23710225799999998    1.872398445    -0.069837    -0.044324    -0.016082
F    -4.275150092    -0.03828733    -0.536668365    -0.611376    -1.175336    0.804394
F    0.518986027    1.244156337    -3.160528829    0.07688    0.234567    -0.169463
