12
Properties=species:S:1:pos:R:3:forces:R:3 energy=-186.55305057 pbc="F F F"
Al    -0.06858073799999997    1.2372648599999998    -1.7666086360000002    0.131326    0.368502    0.096393
Al    -0.143930614    1.123712153    1.336803636    -0.054767    -0.122975    -0.013471
Al    -2.672738119    0.424584289    -1.8227399420000001    -0.052417    -0.204829    -0.141464
F    -3.235210561    0.316712408    -3.573486008    -0.000567    0.015102    0.016771
F    -1.008456157    -0.46682980100000004    -1.858040645    -0.155826    -0.24882    -0.015022
F    -1.775807587    2.120462403    -1.801737583    0.126259    0.099458    0.006975
F    -1.7547493250000001    0.669823739    0.492971924    -0.015285    -0.003872    0.003326
F    0.831452327    1.4532322430000002    -0.244166611    0.044068    0.002916    -0.078573
F    -0.17055417499999997    2.763433597    2.102863747    0.000691    0.157784    0.066445
F    0.732691115    -0.28205925800000003    2.036586845    0.028528    -0.048599    0.022034
F    -3.9624383919999997    0.036728670000000005    -0.5562140649999999    -0.115742    -0.013317    0.108843
F    0.974122127    1.5580527370000001    -3.184734029    0.063733    -0.001348    -0.072258
