      12
SCF Done            -185.60392884
Al           -1.789325861         2.437634220        -1.333609291
Al           -0.468875355        -0.001632994        -2.318797374
Al           -2.165792176        -0.346896318        -0.456755437
F            -0.656316541         3.315950636        -0.138215057
F            -3.103458847         3.028963993        -2.421559992
F            -1.419396680        -1.665621427        -1.757318561
F            -2.560466562         1.432771483         0.068170762
F            -3.420748363        -0.946451432         0.779930253
F             0.711251998        -0.105733341        -3.754149504
F            -0.321501925         1.888322714        -2.388665031
F            -2.394233757         0.505304151        -2.243170028
F            -0.242605168         0.049425639        -0.366877208
