      12
SCF Done            -182.88178456
Al           -0.047795657         1.633290596         2.144119021
Al            2.465700596         2.874274525         1.642458075
Al            1.251152158         2.791963581        -0.613028153
F             1.012675352         3.067937019         2.829231832
F            -1.647834447         2.729098543         2.178904095
F            -0.486729460        -0.033351718         2.754860760
F             1.747306869         0.632591085         1.957677734
F             3.085229342         1.779431372        -0.038391454
F             1.097797214         3.016368452        -2.355855804
F             1.775259868         3.851325587         0.628870765
F             4.200008966         3.141959111         2.500689668
F             0.020075100         1.806179868         0.198585505
