12
Properties=species:S:1:pos:R:3:forces:R:3 energy=-179.36556848 pbc="F F F"
Al    0.262900362    1.16737676    -1.893170736    8.500387    2.030201    10.125088
Al    -0.6177515140000001    1.0348030529999999    1.134809636    1.169772    0.264955    0.636264
Al    -2.528156919    0.5656126890000001    -1.817952142    13.671749    2.994291    2.074969
F    -3.637321461    0.28708120800000003    -3.853352908    -2.838003    -0.730046    -6.118812
F    -1.638278557    -0.531372901    -1.834842245    -4.692994    0.171184    -0.125217
F    -2.170378687    1.9306984029999998    -1.881800583    -4.202655    -2.097649    -0.081945
F    -1.935140125    0.738413739    0.522578824    -1.481333    -0.329729    -0.502559
F    0.45117432700000004    1.228736043    -0.809445911    -4.255083    -1.105323    -9.737753
F    -0.29529237500000005    2.8614763969999997    2.052988547    -0.020972    -0.793428    -0.316481
F    0.422771915    -0.46107665800000003    2.116355045    -0.344136    0.701895    -0.344994
F    -4.484608692    0.16983887    -0.399554165    -4.512251    -0.910943    3.368053
F    0.399708827    1.182580937    -2.646277429    -0.994484    -0.195408    1.023387
