      12
SCF Done            -161.13660632
Al           -0.144973638         1.083283760        -1.680525736
Al           -0.414810381         1.081836091         1.301269601
Al           -2.735532903         0.522350678        -1.736345409
F            -3.616378455         0.291426136        -3.862836161
F            -1.495060558        -0.597783904        -1.850192338
F            -2.067231693         2.049701389        -1.900686761
F            -2.077786977         0.705925855         0.435561709
F             0.509527416         1.247683097        -0.477238975
F            -0.305202181         2.717494404         1.984420571
F             0.354849008        -0.336628671         2.042667958
F            -4.409336567         0.185035926        -0.455699313
F             0.710578819         1.239235903        -3.198349444
