12
Properties=species:S:1:pos:R:3:forces:R:3 energy=-183.86326999 pbc="F F F"
Al    0.232042472    -2.490219611    -1.8660793610000002    0.754907    2.42461    0.630494
Al    2.32306513    -0.461298256    -0.665122124    0.337568    0.628764    0.228932
Al    -0.447979206    0.611169903    -1.818941583    0.221074    0.716154    0.185348
F    4.181005288    -0.069315616    0.237789477    1.196192    0.205208    0.575831
F    -0.222998474    -4.211902393    -2.2764026360000003    0.635119    2.39766    0.57208
F    1.811363138    -1.902893776    -2.246315589    -2.826758    -1.675119    -0.21431
F    1.459858495    0.640190839    -2.32307242    0.584816    0.779904    -1.408372
F    -1.8461459219999998    2.050634031    -2.296573911    -0.664709    0.69462    -0.225878
F    -0.9120369860000002    -1.4586418520000002    -1.1208082689999999    1.737428    -2.452783    -0.954832
F    -0.04436347399999999    -1.239812009    -3.001235681    0.630508    -2.731951    1.444092
F    0.415585496    0.37682149800000003    -0.059915501999999995    -0.746255    0.444203    1.476334
F    0.9254871339999999    -2.12631461    -0.326439673    -1.85989    -1.431271    -2.309721
