12
Properties=species:S:1:pos:R:3:forces:R:3 energy=-187.21482041 pbc="F F F"
Al    1.42413768    0.13964511699999999    2.611328673    0.154859    0.02304    -0.011245
Al    1.1052354    1.0861016000000001    -0.0424586    0.237846    -0.677399    -0.191767
Al    -0.29553356199999997    0.98442505    -2.505703173    0.13306    0.033753    -0.076129
F    -1.559151772    -0.372442253    -2.354278406    -0.268649    0.143145    0.156771
F    2.031588653    -0.360074553    0.849760852    0.260545    0.044721    0.049027
F    -0.153270861    1.7926046900000001    -4.124014133    -0.01194    0.016149    0.005777
F    -0.38748741    2.057098553    -0.899557649    -0.172758    -0.125744    0.138984
F    2.565917357    2.250156712    -0.341172243    0.020679    0.385046    0.056618
F    1.181371039    0.05758880500000001    -1.6801330540000001    0.184376    0.082138    -0.177611
F    0.507983317    1.617201229    1.764997239    -0.232701    -0.096298    -0.039379
F    2.570847969    0.454396476    3.981843637    -0.011409    0.015888    0.007357
F    0.18954207500000003    -1.231479152    2.8491062709999997    -0.293908    0.155558    0.081597
