12
Properties=species:S:1:pos:R:3:forces:R:3 energy=-185.93824034 pbc="F F F"
Al    -1.646322061    2.55950282    -1.180690291    0.403923    0.362653    0.435351
Al    -0.596183355    -0.014529393999999998    -2.3823473739999996    -0.744024    0.267039    0.407214
Al    -2.239483576    -0.34888311800000005    -0.5791396369999999    0.268255    0.473002    -0.703568
F    -0.709757541    3.719923636    -0.112011857    -0.25142    0.476451    -0.14078
F    -2.993198047    3.041431993    -2.318765792    -0.008452    0.25188    0.039002
F    -1.35521408    -1.7377942270000002    -1.712209761    0.087712    -0.030813    0.074219
F    -2.4905567619999998    1.411769283    0.030958162    0.020751    -0.107532    0.045451
F    -3.351808563    -1.096891032    0.814888253    0.027381    -0.911978    0.024447
F    0.780218198    -0.25616734099999994    -3.719219504    0.192157    -0.878453    -0.156363
F    -0.34642192499999996    1.8480263140000002    -2.3218200309999997    0.066179    -0.09829    -0.004398
F    -2.534011957    0.327155151    -2.4035866280000002    -0.032175    -0.023187    -0.033624
F    -0.33761276799999995    0.117994439    -0.44074480800000004    -0.030285    0.219227    0.01305
