12
Properties=species:S:1:pos:R:3:forces:R:3 energy=-186.91384338 pbc="F F F"
Al    0.438644593    -0.470897958    1.7059209389999999    0.56162    -0.033077    -0.173261
Al    2.313333965    -1.739729272    -0.542840497    -0.363871    0.339911    0.502223
Al    -0.804313981    -2.004710358    -1.081453743    -0.098016    -0.177393    -0.32481
F    3.595692507    -0.329513393    -0.57420058    -0.092881    0.354198    0.164129
F    -1.933419054    -0.6668170880000001    -1.7382841969999998    -0.217247    -0.269656    -0.274483
F    2.4287677949999997    -3.585814294    -0.717557643    -0.238388    -0.250168    0.238098
F    -1.562988366    -3.690448802    -1.00987992    -0.287264    0.025004    -0.342522
F    1.962493797    -1.330175793    1.207290602    0.088482    0.066321    0.100799
F    0.901278964    -1.690094082    -1.790866665    -0.001738    0.000858    0.016074
F    0.091497352    -1.092488363    3.398451289    0.321622    -0.039162    0.078862
F    0.37480257100000003    1.3067098990000001    1.340763136    0.207128    0.017467    0.037495
F    -0.5907682679999999    -1.573881983    0.6574698139999999    0.120553    -0.034304    -0.022601
