12
-187.38518821
Al		1.22330168		0.118142317		2.475199073
Al		1.276784		1.189243		-0.083083
Al		-0.259766562		0.76659025		-2.353611773
F		-1.401343172		-0.683878453		-2.361052606
F		1.792959253		-0.484901953		0.714683452
F		-0.158867861		2.06377529		-3.687560333
F		-0.49346381		1.685251753		-0.653896049
F		2.587876557		2.420946512		-0.320355443
F		1.468075239		0.205748405		-1.777633254
F		0.640675117		1.754854429		1.691967039
F		2.752364969		0.352223076		3.514167437
F		-0.248656325		-0.886669352		2.955619071
