12
-187.38518821
Al		1.22330168		0.118142317		2.475199073
Al		1.276784		1.189243		-0.083083
Al		-0.259766562		0.76659025		-2.353611773
F		-1.401343172		-0.683878453		-2.361052606
F		1.792959253		-0.484901953		0.714683452
F		-0.158867861		2.06377529		-3.687560333
F		-0.49346381		1.685251753		-0.653896049
F		2.587876557		2.420946512		-0.320355443
F		1.468075239		0.205748405		-1.777633254
F		0.640675117		1.754854429		1.691967039
F		2.752364969		0.352223076		3.514167437
F		-0.248656325		-0.886669352		2.955619071
12
-187.38518821
Al		1.25296668		0.083543817		2.459517573
Al		1.276784		1.189243		-0.083083
Al		-0.289432062		0.80118825		-2.337930273
F		-1.535949672		-0.526888453		-2.289897106
F		1.928066753		-0.418508953		0.735307452
F		-0.054642861		1.94221829		-3.742654833
F		-0.42625681		1.808922753		-0.711133549
F		2.587876557		2.420946512		-0.320355443
F		1.365430239		0.123408905		-1.701662754
F		0.541006117		1.647130429		1.652610039
F		2.648139469		0.473779076		3.569262437
F		-0.114049825		-1.043659352		2.884463571
12
-187.38518821
Al		1.28263168		0.048945317		2.443836073
Al		1.276784		1.189243		-0.083083
Al		-0.319097562		0.83578625		-2.322248773
F		-1.670556172		-0.369898453		-2.218741606
F		2.063174253		-0.352115953		0.755931452
F		0.049582139		1.82066129		-3.797749333
F		-0.35904981		1.932593753		-0.768371049
F		2.587876557		2.420946512		-0.320355443
F		1.262785239		0.041069405		-1.625692254
F		0.441337117		1.539406429		1.613253039
F		2.543913969		0.595335076		3.624357437
F		0.020556675		-1.200649352		2.813308071
12
-187.38518821
Al		1.31229668		0.014346817		2.428154573
Al		1.276784		1.189243		-0.083083
Al		-0.348763062		0.87038425		-2.306567273
F		-1.805162672		-0.212908453		-2.147586106
F		2.198281753		-0.285722953		0.776555452
F		0.153807139		1.69910429		-3.852843833
F		-0.29184281		2.056264753		-0.825608549
F		2.587876557		2.420946512		-0.320355443
F		1.160140239		-0.041270095		-1.549721754
F		0.341668117		1.431682429		1.573896039
F		2.439688469		0.716891076		3.679452437
F		0.155163175		-1.357639352		2.742152571
