      12
SCF Done            -165.31703110
Al            0.053722387         1.519757572         2.265016620
Al            2.561047096         2.421444025         1.535020575
Al            1.156190684         2.929780584        -0.716156654
F             1.151342378         3.065676536         2.643659863
F            -1.269701883         2.857929522         2.263641186
F            -0.714214471        -0.057456266         2.827264230
F             1.886910353         0.674301593         2.085865265
F             2.781551345         1.941808853        -0.150623416
F             1.206976809         2.990034933        -2.564247812
F             1.723004894         4.151979587         0.583171267
F             3.786655968         3.262384577         2.839519180
F             0.129832609         1.615552410         0.233175493
