      12
SCF Done            -183.86046547
Al           -0.359200238         1.035777360        -1.743858636
Al           -0.311594614         1.100063153         1.087377636
Al           -3.072971119         0.446826789        -1.872545442
F            -3.553812561         0.308850908        -3.658195008
F            -1.236676157        -0.431497301        -1.835276645
F            -1.763372087         2.005571903        -1.881757583
F            -1.989331325         0.726083739         0.490145924
F             0.374326327         1.223310743        -0.223075611
F            -0.319359675         2.645480097         1.962953247
F             0.312396115        -0.277715258         2.018703845
F            -4.325750892         0.201752170        -0.526384065
F             0.639927127         1.225140237        -3.136813029
