12
Properties=species:S:1:pos:R:3:forces:R:3 energy=-185.68924517 pbc="F F F"
Al    0.15912657200000002    -2.393678811    -1.590475461    0.053454    0.075932    0.070787
Al    2.04598153    -0.524116256    -0.911285424    0.04174    0.223258    -0.252899
Al    -0.264909606    0.302823103    -1.942830083    0.087602    0.109774    0.332302
F    3.569969088    0.284714984    -0.198931423    0.03901    0.007721    -0.08463
F    -0.415258574    -4.000258093    -2.240070436    -0.004569    -0.001107    0.008597
F    2.1023388379999997    -1.7973508759999999    -2.242343189    0.12573    -0.158841    -0.006697
F    1.555335495    0.8944119389999999    -2.22845762    0.00014    -0.092148    0.04512
F    -1.340189622    1.780828131    -2.0603333110000004    -0.036598    -0.010786    0.075279
F    -1.3127114860000002    -1.260734852    -1.123536369    -0.24067    -0.080027    -0.045081
F    0.166637226    -1.095952909    -3.140594981    0.208712    -0.006322    -0.195869
F    0.44864759600000004    -0.09006060199999999    -0.089990002    -0.069062    -0.081821    -0.082415
F    1.191908134    -2.32957861    0.023831027000000005    -0.205488    0.014367    0.135507
