      12
SCF Done            -185.68924517
Al            0.271748572        -2.328993811        -1.818948461
Al            2.071671530        -0.531623256        -0.887572424
Al           -0.368371606         0.300739103        -1.730115083
F             3.670610088        -0.168549016        -0.130185423
F            -0.171483574        -4.033330093        -2.219487436
F             2.187784838        -1.939218876        -2.226834189
F             1.525357495         0.675851939        -2.259977620
F            -1.524077622         1.642001131        -2.086962311
F            -1.286237486        -1.310667852        -1.106169369
F             0.056873226        -0.972953909        -3.173516981
F             0.504799596         0.377106398        -0.039262002
F             0.961520134        -1.949873610        -0.067510973
