12
Properties=species:S:1:pos:R:3:forces:R:3 energy=-186.14442818 pbc="F F F"
Al    -0.027487956999999993    1.441814396    1.941368621    0.718948    1.198382    -1.447129
Al    2.574355996    2.5396022250000003    1.7617769749999999    -0.114842    -0.153247    -0.165558
Al    1.270113758    2.920108181    -0.552204653    0.034617    0.030713    -0.081286
F    0.985664652    2.797556919    2.8766016320000003    -0.093532    0.016213    0.176341
F    -1.6446949469999999    2.4630501430000002    1.872586995    -0.600245    0.547817    -0.34849
F    -0.28657186    -0.101966518    3.08878846    -0.356919    -1.661448    1.62992
F    2.027519969    0.735856685    1.695358034    0.204163    -0.085848    -0.214277
F    3.0228525420000003    2.181602772    -0.25927595400000003    0.182959    -0.022828    -0.130318
F    0.636889914    3.4509502519999997    -2.226760404    -0.014485    0.009234    -0.01907
F    1.640340568    4.073007587    0.877017465    -0.035873    0.153689    0.114928
F    4.119956566    3.158783911    2.477636468    0.169089    0.065412    0.110156
F    0.1255582    1.706973668    0.279561105    -0.09388    -0.09809    0.374783
