12
-186.56215295
Al		-0.395047138		1.17683366		-1.822210836
Al		-0.442543814		1.049637853		1.282135736
Al		-3.007654619		0.401790989		-1.857730742
F		-3.524711261		0.282371908		-3.599110108
F		-1.300139957		-0.492805801		-1.993985545
F		-2.045232287		2.103015103		-1.742735083
F		-1.980184725		0.465513239		0.460497324
F		0.523423827		1.607684943		-0.301212511
F		-0.046517375		2.756392497		1.851625447
F		0.126062915		-0.439285958		2.190358645
F		-4.282820592		0.23942537		-0.581337765
F		0.789392727		1.050333037		-3.230166629
