12
-186.56215295
Al		-0.355161838		0.99228056		-1.818690936
Al		-0.449400781		1.081366491		1.281530001
Al		-3.023427103		0.474771078		-1.859122409
F		-3.533705855		0.323992336		-3.599904161
F		-1.399217358		-0.581946304		-1.798940338
F		-1.916661893		2.055683189		-1.935177761
F		-2.049707777		0.787204855		0.454361909
F		0.617271416		1.173442897		-0.292930775
F		-0.374759781		2.734192204		2.030625571
F		0.435596408		-0.330511071		2.009706958
F		-4.275007567		0.203271526		-0.580648513
F		0.734904219		1.302459703		-3.234974444
