12
-186.56215295
Al		-0.337435038		0.91025696		-1.817126536
Al		-0.452448514		1.095468053		1.281260836
Al		-3.030437119		0.507206689		-1.859740542
F		-3.537703461		0.342490408		-3.600256708
F		-1.443251757		-0.621564301		-1.712253445
F		-1.859519487		2.034646803		-2.020707583
F		-2.080607125		0.930178739		0.451635224
F		0.658981327		0.980446643		-0.289249911
F		-0.520645575		2.724325397		2.110181147
F		0.573166715		-0.282166658		1.929417445
F		-4.271535292		0.18720307		-0.580341965
F		0.710686827		1.414516337		-3.237111229
