12
-186.56215295
Al		-0.408342238		1.23835136		-1.823384136
Al		-0.440257981		1.039061691		1.282337601
Al		-3.002397103		0.377464278		-1.857267209
F		-3.521713055		0.268498336		-3.598845761
F		-1.267114158		-0.463092304		-2.059000738
F		-2.088089093		2.118792389		-1.678587761
F		-1.957010177		0.358282855		0.462542309
F		0.492141416		1.752433297		-0.303973175
F		0.062897019		2.763792604		1.791958771
F		0.022885208		-0.475544271		2.250575758
F		-4.285424767		0.251476726		-0.581567713
F		0.807554619		0.966291703		-3.228564044
