12
-186.56215295
Al		-0.341866738		0.93076286		-1.817517636
Al		-0.451686614		1.091942653		1.281328136
Al		-3.028684619		0.499097789		-1.859585942
F		-3.536704061		0.337865908		-3.600168508
F		-1.432243157		-0.611659801		-1.733925145
F		-1.873805087		2.039905903		-1.999325083
F		-2.072882325		0.894435239		0.452316924
F		0.648553827		1.028695743		-0.290170111
F		-0.484174175		2.726792097		2.090292247
F		0.538774115		-0.294252758		1.949489845
F		-4.272403392		0.19122017		-0.580418565
F		0.716741127		1.386502237		-3.236577029
