12
-186.56215295
Al		-0.359593538		1.01278646		-1.819082036
Al		-0.448639014		1.077841053		1.281597336
Al		-3.021674619		0.466662189		-1.858967542
F		-3.532706461		0.319367908		-3.599815708
F		-1.388208757		-0.572041801		-1.820611945
F		-1.930947487		2.060942303		-1.913795083
F		-2.041983125		0.751461239		0.455043724
F		0.606843827		1.221692143		-0.293850911
F		-0.338288575		2.736658897		2.010736647
F		0.401203715		-0.342597158		2.029779445
F		-4.275875792		0.20728857		-0.580724965
F		0.740958327		1.274445837		-3.234440229
