12
-186.56215295
Al		-0.408342238		1.23835136		-1.823384136
Al		-0.440257981		1.039061691		1.282337601
Al		-3.002397103		0.377464278		-1.857267209
F		-3.521713055		0.268498336		-3.598845761
F		-1.267114158		-0.463092304		-2.059000738
F		-2.088089093		2.118792389		-1.678587761
F		-1.957010177		0.358282855		0.462542309
F		0.492141416		1.752433297		-0.303973175
F		0.062897019		2.763792604		1.791958771
F		0.022885208		-0.475544271		2.250575758
F		-4.285424767		0.251476726		-0.581567713
F		0.807554619		0.966291703		-3.228564044
12
-186.56215295
Al		-0.399478838		1.19733956		-1.822601936
Al		-0.441781781		1.046112491		1.282203001
Al		-3.005902103		0.393682078		-1.857576409
F		-3.523711855		0.277747336		-3.599022161
F		-1.289131358		-0.482901304		-2.015657338
F		-2.059517893		2.108274189		-1.721352761
F		-1.972459777		0.429769855		0.461178909
F		0.512996416		1.655934897		-0.302132775
F		-0.010045781		2.758859204		1.831736571
F		0.091670408		-0.451372071		2.210430958
F		-4.283688567		0.243442526		-0.581414513
F		0.795446219		1.022319703		-3.229632444
12
-186.56215295
Al		-0.390615438		1.15632776		-1.821819736
Al		-0.443305581		1.053163291		1.282068401
Al		-3.009407103		0.409899878		-1.857885609
F		-3.525710655		0.286996336		-3.599198561
F		-1.311148558		-0.502710304		-1.972313938
F		-2.030946693		2.097755989		-1.764117761
F		-1.987909377		0.501256855		0.459815509
F		0.533851416		1.559436497		-0.300292375
F		-0.082988581		2.753925804		1.871514371
F		0.160455608		-0.427199871		2.170286158
F		-4.281952367		0.235408326		-0.581261313
F		0.783337819		1.078347703		-3.230700844
12
-186.56215295
Al		-0.381752038		1.11531596		-1.821037536
Al		-0.444829381		1.060214091		1.281933801
Al		-3.012912103		0.426117678		-1.858194809
F		-3.527709455		0.296245336		-3.599374961
F		-1.333165758		-0.522519304		-1.928970538
F		-2.002375493		2.087237789		-1.806882761
F		-2.003358977		0.572743855		0.458452109
F		0.554706416		1.462938097		-0.298451975
F		-0.155931381		2.748992404		1.911292171
F		0.229240808		-0.403027671		2.130141358
F		-4.280216167		0.227374126		-0.581108113
F		0.771229419		1.134375703		-3.231769244
12
-186.56215295
Al		-0.372888638		1.07430416		-1.820255336
Al		-0.446353181		1.067264891		1.281799201
Al		-3.016417103		0.442335478		-1.858504009
F		-3.529708255		0.305494336		-3.599551361
F		-1.355182958		-0.542328304		-1.885627138
F		-1.973804293		2.076719589		-1.849647761
F		-2.018808577		0.644230855		0.457088709
F		0.575561416		1.366439697		-0.296611575
F		-0.228874181		2.744059004		1.951069971
F		0.298026008		-0.378855471		2.089996558
F		-4.278479967		0.219339926		-0.580954913
F		0.759121019		1.190403703		-3.232837644
12
-186.56215295
Al		-0.364025238		1.03329236		-1.819473136
Al		-0.447876981		1.074315691		1.281664601
Al		-3.019922103		0.458553278		-1.858813209
F		-3.531707055		0.314743336		-3.599727761
F		-1.377200158		-0.562137304		-1.842283738
F		-1.945233093		2.066201389		-1.892412761
F		-2.034258177		0.715717855		0.455725309
F		0.596416416		1.269941297		-0.294771175
F		-0.301816981		2.739125604		1.990847771
F		0.366811208		-0.354683271		2.049851758
F		-4.276743767		0.211305726		-0.580801713
F		0.747012619		1.246431703		-3.233906044
12
-186.56215295
Al		-0.355161838		0.99228056		-1.818690936
Al		-0.449400781		1.081366491		1.281530001
Al		-3.023427103		0.474771078		-1.859122409
F		-3.533705855		0.323992336		-3.599904161
F		-1.399217358		-0.581946304		-1.798940338
F		-1.916661893		2.055683189		-1.935177761
F		-2.049707777		0.787204855		0.454361909
F		0.617271416		1.173442897		-0.292930775
F		-0.374759781		2.734192204		2.030625571
F		0.435596408		-0.330511071		2.009706958
F		-4.275007567		0.203271526		-0.580648513
F		0.734904219		1.302459703		-3.234974444
12
-186.56215295
Al		-0.346298438		0.95126876		-1.817908736
Al		-0.450924581		1.088417291		1.281395401
Al		-3.026932103		0.490988878		-1.859431609
F		-3.535704655		0.333241336		-3.600080561
F		-1.421234558		-0.601755304		-1.755596938
F		-1.888090693		2.045164989		-1.977942761
F		-2.065157377		0.858691855		0.452998509
F		0.638126416		1.076944497		-0.291090375
F		-0.447702581		2.729258804		2.070403371
F		0.504381608		-0.306338871		1.969562158
F		-4.273271367		0.195237326		-0.580495313
F		0.722795819		1.358487703		-3.236042844
12
-186.56215295
Al		-0.337435038		0.91025696		-1.817126536
Al		-0.452448381		1.095468091		1.281260801
Al		-3.030437103		0.507206678		-1.859740809
F		-3.537703455		0.342490336		-3.600256961
F		-1.443251758		-0.621564304		-1.712253538
F		-1.859519493		2.034646789		-2.020707761
F		-2.080606977		0.930178855		0.451635109
F		0.658981416		0.980446097		-0.289249975
F		-0.520645381		2.724325404		2.110181171
F		0.573166808		-0.282166671		1.929417358
F		-4.271535167		0.187203126		-0.580342113
F		0.710687419		1.414515703		-3.237111244
12
-186.56215295
Al		-0.328571638		0.86924516		-1.816344336
Al		-0.453972181		1.102518891		1.281126201
Al		-3.033942103		0.523424478		-1.860050009
F		-3.539702255		0.351739336		-3.600433361
F		-1.465268958		-0.641373304		-1.668910138
F		-1.830948293		2.024128589		-2.063472761
F		-2.096056577		1.001665855		0.450271709
F		0.679836416		0.883947697		-0.287409575
F		-0.593588181		2.719392004		2.149958971
F		0.641952008		-0.257994471		1.889272558
F		-4.269798967		0.179168926		-0.580188913
F		0.698579019		1.470543703		-3.238179644
