12
-186.56215295
Al		-0.408342238		1.23835136		-1.823384136
Al		-0.440258114		1.039061653		1.282337636
Al		-3.002397119		0.377464289		-1.857266942
F		-3.521713061		0.268498408		-3.598845508
F		-1.267114157		-0.463092301		-2.059000645
F		-2.088089087		2.118792403		-1.678587583
F		-1.957010325		0.358282739		0.462542424
F		0.492141327		1.752432243		-0.303973111
F		0.062896825		2.763792597		1.791958747
F		0.022885115		-0.475544258		2.250575845
F		-4.285424892		0.25147667		-0.581567565
F		0.807555627		0.966290737		-3.228564029
12
-186.56215295
Al		-0.403910538		1.21784546		-1.822993036
Al		-0.441020014		1.042587053		1.282270336
Al		-3.004149619		0.385573189		-1.857421542
F		-3.522712461		0.273122908		-3.598933708
F		-1.278122757		-0.472996801		-2.037328945
F		-2.073803487		2.113533303		-1.699970083
F		-1.964735125		0.394026239		0.461860724
F		0.502568827		1.704183143		-0.303052911
F		0.026425425		2.761325897		1.811847647
F		0.057277715		-0.463458158		2.230503445
F		-4.284556792		0.24745957		-0.581490965
F		0.801501327		0.994304837		-3.229098229
12
-186.56215295
Al		-0.399478838		1.19733956		-1.822601936
Al		-0.441781914		1.046112453		1.282203036
Al		-3.005902119		0.393682089		-1.857576142
F		-3.523711861		0.277747408		-3.599021908
F		-1.289131357		-0.482901301		-2.015657245
F		-2.059517887		2.108274203		-1.721352583
F		-1.972459925		0.429769739		0.461179024
F		0.512996327		1.655934043		-0.302132711
F		-0.010045975		2.758859197		1.831736547
F		0.091670315		-0.451372058		2.210431045
F		-4.283688692		0.24344247		-0.581414365
F		0.795447027		1.022318937		-3.229632429
12
-186.56215295
Al		-0.395047138		1.17683366		-1.822210836
Al		-0.442543814		1.049637853		1.282135736
Al		-3.007654619		0.401790989		-1.857730742
F		-3.524711261		0.282371908		-3.599110108
F		-1.300139957		-0.492805801		-1.993985545
F		-2.045232287		2.103015103		-1.742735083
F		-1.980184725		0.465513239		0.460497324
F		0.523423827		1.607684943		-0.301212511
F		-0.046517375		2.756392497		1.851625447
F		0.126062915		-0.439285958		2.190358645
F		-4.282820592		0.23942537		-0.581337765
F		0.789392727		1.050333037		-3.230166629
12
-186.56215295
Al		-0.390615438		1.15632776		-1.821819736
Al		-0.443305714		1.053163253		1.282068436
Al		-3.009407119		0.409899889		-1.857885342
F		-3.525710661		0.286996408		-3.599198308
F		-1.311148557		-0.502710301		-1.972313845
F		-2.030946687		2.097756003		-1.764117583
F		-1.987909525		0.501256739		0.459815624
F		0.533851327		1.559435843		-0.300292311
F		-0.082988775		2.753925797		1.871514347
F		0.160455515		-0.427199858		2.170286245
F		-4.281952492		0.23540827		-0.581261165
F		0.783338427		1.078347137		-3.230700829
12
-186.56215295
Al		-0.386183738		1.13582186		-1.821428636
Al		-0.444067614		1.056688653		1.282001136
Al		-3.011159619		0.418008789		-1.858039942
F		-3.526710061		0.291620908		-3.599286508
F		-1.322157157		-0.512614801		-1.950642145
F		-2.016661087		2.092496903		-1.785500083
F		-1.995634325		0.537000239		0.459133924
F		0.544278827		1.511186743		-0.299372111
F		-0.119460175		2.751459097		1.891403247
F		0.194848115		-0.415113758		2.150213845
F		-4.281084392		0.23139117		-0.581184565
F		0.777284127		1.106361237		-3.231235029
12
-186.56215295
Al		-0.381752038		1.11531596		-1.821037536
Al		-0.444829514		1.060214053		1.281933836
Al		-3.012912119		0.426117689		-1.858194542
F		-3.527709461		0.296245408		-3.599374708
F		-1.333165757		-0.522519301		-1.928970445
F		-2.002375487		2.087237803		-1.806882583
F		-2.003359125		0.572743739		0.458452224
F		0.554706327		1.462937643		-0.298451911
F		-0.155931575		2.748992397		1.911292147
F		0.229240715		-0.403027658		2.130141445
F		-4.280216292		0.22737407		-0.581107965
F		0.771229827		1.134375337		-3.231769229
12
-186.56215295
Al		-0.377320338		1.09481006		-1.820646436
Al		-0.445591414		1.063739453		1.281866536
Al		-3.014664619		0.434226589		-1.858349142
F		-3.528708861		0.300869908		-3.599462908
F		-1.344174357		-0.532423801		-1.907298745
F		-1.988089887		2.081978703		-1.828265083
F		-2.011083925		0.608487239		0.457770524
F		0.565133827		1.414688543		-0.297531711
F		-0.192402975		2.746525697		1.931181047
F		0.263633315		-0.390941558		2.110069045
F		-4.279348192		0.22335697		-0.581031365
F		0.765175527		1.162389437		-3.232303429
12
-186.56215295
Al		-0.372888638		1.07430416		-1.820255336
Al		-0.446353314		1.067264853		1.281799236
Al		-3.016417119		0.442335489		-1.858503742
F		-3.529708261		0.305494408		-3.599551108
F		-1.355182957		-0.542328301		-1.885627045
F		-1.973804287		2.076719603		-1.849647583
F		-2.018808725		0.644230739		0.457088824
F		0.575561327		1.366439443		-0.296611511
F		-0.228874375		2.744058997		1.951069947
F		0.298025915		-0.378855458		2.089996645
F		-4.278480092		0.21933987		-0.580954765
F		0.759121227		1.190403537		-3.232837629
12
-186.56215295
Al		-0.368456938		1.05379826		-1.819864236
Al		-0.447115214		1.070790253		1.281731936
Al		-3.018169619		0.450444389		-1.858658342
F		-3.530707661		0.310118908		-3.599639308
F		-1.366191557		-0.552232801		-1.863955345
F		-1.959518687		2.071460503		-1.871030083
F		-2.026533525		0.679974239		0.456407124
F		0.585988827		1.318190343		-0.295691311
F		-0.265345775		2.741592297		1.970958847
F		0.332418515		-0.366769358		2.069924245
F		-4.277611992		0.21532277		-0.580878165
F		0.753066927		1.218417637		-3.233371829
12
-186.56215295
Al		-0.364025238		1.03329236		-1.819473136
Al		-0.447877114		1.074315653		1.281664636
Al		-3.019922119		0.458553289		-1.858812942
F		-3.531707061		0.314743408		-3.599727508
F		-1.377200157		-0.562137301		-1.842283645
F		-1.945233087		2.066201403		-1.892412583
F		-2.034258325		0.715717739		0.455725424
F		0.596416327		1.269941243		-0.294771111
F		-0.301817175		2.739125597		1.990847747
F		0.366811115		-0.354683258		2.049851845
F		-4.276743892		0.21130567		-0.580801565
F		0.747012627		1.246431737		-3.233906029
12
-186.56215295
Al		-0.359593538		1.01278646		-1.819082036
Al		-0.448639014		1.077841053		1.281597336
Al		-3.021674619		0.466662189		-1.858967542
F		-3.532706461		0.319367908		-3.599815708
F		-1.388208757		-0.572041801		-1.820611945
F		-1.930947487		2.060942303		-1.913795083
F		-2.041983125		0.751461239		0.455043724
F		0.606843827		1.221692143		-0.293850911
F		-0.338288575		2.736658897		2.010736647
F		0.401203715		-0.342597158		2.029779445
F		-4.275875792		0.20728857		-0.580724965
F		0.740958327		1.274445837		-3.234440229
12
-186.56215295
Al		-0.355161838		0.99228056		-1.818690936
Al		-0.449400914		1.081366453		1.281530036
Al		-3.023427119		0.474771089		-1.859122142
F		-3.533705861		0.323992408		-3.599903908
F		-1.399217357		-0.581946301		-1.798940245
F		-1.916661887		2.055683203		-1.935177583
F		-2.049707925		0.787204739		0.454362024
F		0.617271327		1.173443043		-0.292930711
F		-0.374759975		2.734192197		2.030625547
F		0.435596315		-0.330511058		2.009707045
F		-4.275007692		0.20327147		-0.580648365
F		0.734904027		1.302459937		-3.234974429
12
-186.56215295
Al		-0.350730138		0.97177466		-1.818299836
Al		-0.450162814		1.084891853		1.281462736
Al		-3.025179619		0.482879989		-1.859276742
F		-3.534705261		0.328616908		-3.599992108
F		-1.410225957		-0.591850801		-1.777268545
F		-1.902376287		2.050424103		-1.956560083
F		-2.057432725		0.822948239		0.453680324
F		0.627698827		1.125193943		-0.292010511
F		-0.411231375		2.731725497		2.050514447
F		0.469988915		-0.318424958		1.989634645
F		-4.274139592		0.19925437		-0.580571765
F		0.728849727		1.330474037		-3.235508629
12
-186.56215295
Al		-0.346298438		0.95126876		-1.817908736
Al		-0.450924714		1.088417253		1.281395436
Al		-3.026932119		0.490988889		-1.859431342
F		-3.535704661		0.333241408		-3.600080308
F		-1.421234557		-0.601755301		-1.755596845
F		-1.888090687		2.045165003		-1.977942583
F		-2.065157525		0.858691739		0.452998624
F		0.638126327		1.076944843		-0.291090311
F		-0.447702775		2.729258797		2.070403347
F		0.504381515		-0.306338858		1.969562245
F		-4.273271492		0.19523727		-0.580495165
F		0.722795427		1.358488137		-3.236042829
12
-186.56215295
Al		-0.341866738		0.93076286		-1.817517636
Al		-0.451686614		1.091942653		1.281328136
Al		-3.028684619		0.499097789		-1.859585942
F		-3.536704061		0.337865908		-3.600168508
F		-1.432243157		-0.611659801		-1.733925145
F		-1.873805087		2.039905903		-1.999325083
F		-2.072882325		0.894435239		0.452316924
F		0.648553827		1.028695743		-0.290170111
F		-0.484174175		2.726792097		2.090292247
F		0.538774115		-0.294252758		1.949489845
F		-4.272403392		0.19122017		-0.580418565
F		0.716741127		1.386502237		-3.236577029
12
-186.56215295
Al		-0.337435038		0.91025696		-1.817126536
Al		-0.452448514		1.095468053		1.281260836
Al		-3.030437119		0.507206689		-1.859740542
F		-3.537703461		0.342490408		-3.600256708
F		-1.443251757		-0.621564301		-1.712253445
F		-1.859519487		2.034646803		-2.020707583
F		-2.080607125		0.930178739		0.451635224
F		0.658981327		0.980446643		-0.289249911
F		-0.520645575		2.724325397		2.110181147
F		0.573166715		-0.282166658		1.929417445
F		-4.271535292		0.18720307		-0.580341965
F		0.710686827		1.414516337		-3.237111229
12
-186.56215295
Al		-0.333003338		0.88975106		-1.816735436
Al		-0.453210414		1.098993453		1.281193536
Al		-3.032189619		0.515315589		-1.859895142
F		-3.538702861		0.347114908		-3.600344908
F		-1.454260357		-0.631468801		-1.690581745
F		-1.845233887		2.029387703		-2.042090083
F		-2.088331925		0.965922239		0.450953524
F		0.669408827		0.932197543		-0.288329711
F		-0.557116975		2.721858697		2.130070047
F		0.607559315		-0.270080558		1.909345045
F		-4.270667192		0.18318597		-0.580265365
F		0.704632527		1.442530437		-3.237645429
12
-186.56215295
Al		-0.328571638		0.86924516		-1.816344336
Al		-0.453972314		1.102518853		1.281126236
Al		-3.033942119		0.523424489		-1.860049742
F		-3.539702261		0.351739408		-3.600433108
F		-1.465268957		-0.641373301		-1.668910045
F		-1.830948287		2.024128603		-2.063472583
F		-2.096056725		1.001665739		0.450271824
F		0.679836327		0.883948443		-0.287409511
F		-0.593588375		2.719391997		2.149958947
F		0.641951915		-0.257994458		1.889272645
F		-4.269799092		0.17916887		-0.580188765
F		0.698578227		1.470544537		-3.238179629
12
-186.56215295
Al		-0.324139938		0.84873926		-1.815953236
Al		-0.454734214		1.106044253		1.281058936
Al		-3.035694619		0.531533389		-1.860204342
F		-3.540701661		0.356363908		-3.600521308
F		-1.476277557		-0.651277801		-1.647238345
F		-1.816662687		2.018869503		-2.084855083
F		-2.103781525		1.037409239		0.449590124
F		0.690263827		0.835699343		-0.286489311
F		-0.630059775		2.716925297		2.169847847
F		0.676344515		-0.245908358		1.869200245
F		-4.268930992		0.17515177		-0.580112165
F		0.692523927		1.498558637		-3.238713829
