12
Properties=species:S:1:pos:R:3:forces:R:3 energy=-186.45310823 pbc="F F F"
Al    0.325938593    -0.596427358    1.9027611389999999    0.571686    -3.616317    -3.605417
Al    2.008202565    -1.681063272    -0.410786097    1.593741    -0.72329    -0.93201
Al    -0.5986279809999999    -1.714542358    -0.790553943    -1.242936    -0.759718    -1.345259
F    3.648273907    -0.29728759299999996    -1.20124438    -0.653552    -0.721148    0.354517
F    -1.9793206540000001    -0.369562088    -2.021081797    0.543185    -0.705778    0.528859
F    2.799106995    -3.8494132939999997    -0.484128243    -0.292077    1.278862    0.00979
F    -1.280956766    -3.901811202    -1.07851992    0.244891    1.285754    0.088016
F    2.037533797    -1.482066793    1.109812802    -1.807406    0.998734    1.399304
F    0.824489164    -1.538880282    -1.436338265    0.032168    0.110563    -0.230561
F    0.127360552    -1.1456601629999998    3.314278489    -0.337428    -0.535126    2.363376
F    0.40917797100000003    1.187977699    1.174080736    0.040302    2.348734    -0.483699
F    -1.065503068    -1.521917383    0.657757014    1.307426    1.038736    1.853078
