      12
SCF Done            -161.75525529
Al            1.289156062         0.130496116         2.276251437
Al            1.115551200         1.268447800        -0.562847000
Al           -0.431054785         0.806029764        -2.468391473
F            -1.511476604        -0.228709344        -2.229312077
F             2.106964592        -0.468201554         0.899129113
F             0.010681384         1.716455654        -3.641428394
F            -0.220046626         1.905955281        -0.642403895
F             2.590745353         2.419536909        -0.311819444
F             1.323381423         0.105875928        -1.458277977
F             0.406720471         1.514765823         1.797897902
F             2.677401130         0.653079019         3.749480209
F            -0.126978041        -1.347508859         2.858227986
