      12
SCF Done            -177.59947010
Al           -0.619585438         0.974969060        -1.981578436
Al           -0.486454814         1.065541853         1.258792136
Al           -3.351709519         0.384122989        -2.001692042
F            -3.432923761         0.341946808        -3.292767708
F            -1.239696357        -0.520549601        -1.833056945
F            -1.802901387         2.085451403        -1.882759583
F            -1.983474725         0.727141739         0.479249624
F             0.697786827         1.295909143        -0.081892011
F            -0.297867775         2.764361997         1.998346147
F             0.380767015        -0.375746958         2.058232945
F            -4.122052292         0.241953770        -0.726754365
F             0.789518727         1.254826837        -3.275388729
