12
Properties=species:S:1:pos:R:3:forces:R:3 energy=-185.77640412 pbc="F F F"
Al    0.484551772    -2.555200211    -1.833570461    -0.050078    -0.033123    0.097152
Al    2.28021433    -0.7580298560000001    -0.894493424    0.037997    0.024094    -0.038297
Al    -0.08837400600000003    0.09150110299999997    -1.892621683    0.019749    0.031368    -0.053451
F    3.8425234880000003    -0.358767416    -0.12955402300000002    0.001825    0.000822    0.003787
F    -0.01543277400000001    -4.229129693    -2.181708236    -0.001511    -0.01351    -0.007963
F    2.278397238    -2.037523076    -2.3248721889999997    0.044822    0.0054    -0.02065
F    1.736531495    0.43798533900000003    -2.3674714199999998    -0.020616    -0.021979    0.02725
F    -1.2634898220000002    1.472605131    -2.2798253109999997    -0.003554    0.003265    0.001899
F    -0.947041286    -1.424636252    -1.018646169    0.015877    -0.031959    -0.002994
F    0.061531825999999984    -1.242400709    -3.2584501809999997    -0.007707    0.026919    -0.039937
F    0.727958396    0.25574959799999997    -0.12766740199999999    -0.012895    0.024941    0.056185
F    1.2698241339999998    -2.2197588099999996    -0.085067973    -0.023909    -0.016239    -0.022979
