12
Properties=species:S:1:pos:R:3:forces:R:3 energy=-186.23703747 pbc="F F F"
Al    -1.874759061    2.4910930199999997    -1.385260091    -0.298663    -0.175037    0.352763
Al    -0.573999755    -0.034464594    -2.3917669740000003    0.16098    -0.616135    -0.136784
Al    -2.264556176    -0.318438718    -0.620948837    0.281036    0.659787    -0.646211
F    -0.806986541    3.427060436    -0.22437425700000002    -0.037529    -0.000146    0.043624
F    -3.118897647    3.418757393    -2.380161192    0.011109    0.007863    -0.031603
F    -1.34323068    -1.6677286269999998    -1.646441361    0.247714    0.15554    -0.208026
F    -2.088926762    1.425706683    0.296551962    -0.145541    0.183614    0.307122
F    -3.192681363    -1.266710632    0.613911053    0.03629    0.168362    0.0131
F    0.669302798    -0.49945814099999997    -3.629645904    0.004232    -0.167723    -0.071501
F    -0.07816072500000004    1.804187914    -1.917555631    -0.220933    -0.194078    0.112419
F    -2.656802957    0.320725951    -2.468539628    0.029785    -0.037588    0.181639
F    -0.44632416799999997    0.481900839    -0.5214374079999999    -0.068478    0.015541    0.083458
