12
Properties=species:S:1:pos:R:3:forces:R:3 energy=-185.36247819 pbc="F F F"
Al    0.328213172    -2.417448011    -1.823530061    0.198355    0.272923    0.233426
Al    2.00617593    -0.34694225600000006    -0.955758224    -0.057827    0.793024    -0.528314
Al    -0.40662200600000004    0.215116303    -1.682932083    0.503297    0.437971    0.905097
F    3.559402888    0.30667258399999997    -0.220985823    0.067708    0.008763    -0.161138
F    0.030383826000000003    -4.077443293    -2.523927236    -0.009659    -0.002627    0.016583
F    2.395947038    -1.800576476    -2.1474527890000004    0.423023    -0.544182    -0.217847
F    1.316628495    0.8647335389999999    -2.26711982    -0.051155    -0.344786    0.121623
F    -1.616795822    1.621351731    -1.646744711    -0.069639    -0.026017    0.139711
F    -1.426810486    -1.412681852    -1.270950969    -0.848005    -0.34859    0.027507
F    0.283050426    -1.015582309    -3.1321877810000003    0.587028    0.010889    -0.616481
F    0.5222431959999999    -0.01799120200000004    0.0021839979999999995    -0.184667    -0.316079    -0.313862
F    0.9174391340000001    -2.16075261    -0.07223477299999999    -0.558458    0.058713    0.393698
