      12
SCF Done            -186.34193433
Al            0.089451343         1.487083096         2.184390421
Al            2.692702796         2.453448525         1.794874475
Al            1.525696358         2.510775381        -0.617884753
F             1.141655852         2.964013619         2.859993132
F            -1.437887447         2.555766643         2.200765395
F            -0.352680960        -0.155367118         2.777211260
F             1.949837869         0.739320685         1.958497234
F             3.105507842         1.727974972        -0.048305454
F             1.228032214         2.905838052        -2.371111504
F             1.888205368         3.886093687         0.657517565
F             4.251289466         2.996494711         2.484176168
F             0.130727100         1.671996468         0.236404505
