      12
SCF Done            -186.54066269
Al           -0.369087838         1.056717660        -1.819919936
Al           -0.447458414         1.072378453         1.281701636
Al           -3.008603019         0.406178689        -1.857814042
F            -3.542193761         0.363265908        -3.600652908
F            -1.342065657        -0.570937601        -1.829879245
F            -1.973502487         2.043236703        -1.904211183
F            -2.036729325         0.727151139         0.455507424
F             0.598610827         1.259787143        -0.294577411
F            -0.305096275         2.738098997         1.989854147
F             0.370213615        -0.354227758         2.050856245
F            -4.282746192         0.239078670        -0.581331265
F             0.748835227         1.237998637        -3.233745229
