12
-187.38518821
Al		1.281682766		0.050052868		2.444338045
Al		1.276784		1.189243		-0.083083
Al		-0.318147889		0.834679412		-2.322750881
F		-1.66624838		-0.374921824		-2.221019453
F		2.058850752		-0.35424053		0.755271545
F		0.046247784		1.824551862		-3.79598617
F		-0.36120045		1.928636209		-0.766539495
F		2.587876553		2.420946509		-0.320355444
F		1.266070063		0.043704392		-1.628123433
F		0.444526679		1.542853791		1.614512526
F		2.547249946		0.591446027		3.622593969
F		0.016249735		-1.195625179		2.815585746
