12
-187.38518821
Al		1.281445442		0.050329656		2.444463497
Al		1.276784		1.189243		-0.083083
Al		-0.317910565		0.834402624		-2.322876333
F		-1.665171524		-0.376177744		-2.221588697
F		2.057769892		-0.354771674		0.755106553
F		0.045413984		1.825524314		-3.795545414
F		-0.361738106		1.927646841		-0.766081595
F		2.587876553		2.420946509		-0.320355444
F		1.266891223		0.044363108		-1.628731197
F		0.445324031		1.543715583		1.614827382
F		2.54808375		0.590473579		3.622153209
F		0.015172879		-1.194369259		2.816154986
