12
-187.38518821
Al		1.281089456		0.050744838		2.444651675
Al		1.276784		1.189243		-0.083083
Al		-0.317554579		0.833987442		-2.323064511
F		-1.66355624		-0.378061624		-2.222442563
F		2.056148602		-0.35556839		0.754859065
F		0.044163284		1.826982992		-3.79488428
F		-0.36254459		1.926162789		-0.765394745
F		2.587876553		2.420946509		-0.320355444
F		1.268122963		0.045351182		-1.629642843
F		0.446520059		1.545008271		1.615299666
F		2.549334456		0.589014907		3.621492069
F		0.013557595		-1.192485379		2.817008846
