12
-187.38518821
Al		1.280911463		0.050952429		2.444745764
Al		1.276784		1.189243		-0.083083
Al		-0.317376586		0.833779851		-2.3231586
F		-1.662748598		-0.379003564		-2.222869496
F		2.055337957		-0.355966748		0.754735321
F		0.043537934		1.827712331		-3.794553713
F		-0.362947832		1.925420763		-0.76505132
F		2.587876553		2.420946509		-0.320355444
F		1.268738833		0.045845219		-1.630098666
F		0.447118073		1.545654615		1.615535808
F		2.549959809		0.588285571		3.621161499
F		0.012749953		-1.191543439		2.817435776
