12
-187.38518821
Al		1.282454069		0.049153307		2.443930326
Al		1.276784		1.189243		-0.083083
Al		-0.318919192		0.835578973		-2.322343162
F		-1.669748162		-0.370840084		-2.21916941
F		2.062363547		-0.352514312		0.755807769
F		0.048957634		1.821391393		-3.797418627
F		-0.359453068		1.931851655		-0.76802767
F		2.587876553		2.420946509		-0.320355444
F		1.263401293		0.041563565		-1.6261482
F		0.441935285		1.540052967		1.613489244
F		2.544540083		0.594606483		3.624026439
F		0.019749517		-1.199706919		2.813735716
