12
-187.38518821
Al		1.28073347		0.05116002		2.444839853
Al		1.276784		1.189243		-0.083083
Al		-0.317198593		0.83357226		-2.323252689
F		-1.661940956		-0.379945504		-2.223296429
F		2.054527312		-0.356365106		0.754611577
F		0.042912584		1.82844167		-3.794223146
F		-0.363351074		1.924678737		-0.764707895
F		2.587876553		2.420946509		-0.320355444
F		1.269354703		0.046339256		-1.630554489
F		0.447716087		1.546300959		1.61577195
F		2.550585162		0.587556235		3.620830929
F		0.011942311		-1.190601499		2.817862706
