12
-187.38518821
Al		1.280614808		0.051298414		2.444902579
Al		1.276784		1.189243		-0.083083
Al		-0.317079931		0.833433866		-2.323315415
F		-1.661402528		-0.380573464		-2.223581051
F		2.053986882		-0.356630678		0.754529081
F		0.042495684		1.828927896		-3.794002768
F		-0.363619902		1.924184053		-0.764478945
F		2.587876553		2.420946509		-0.320355444
F		1.269765283		0.046668614		-1.630858371
F		0.448114763		1.546731855		1.615929378
F		2.551002064		0.587070011		3.620610549
F		0.011403883		-1.189973539		2.818147326
