12
-187.38518821
Al		1.280496146		0.051436808		2.444965305
Al		1.276784		1.189243		-0.083083
Al		-0.316961269		0.833295472		-2.323378141
F		-1.6608641		-0.381201424		-2.223865673
F		2.053446452		-0.35689625		0.754446585
F		0.042078784		1.829414122		-3.79378239
F		-0.36388873		1.923689369		-0.764249995
F		2.587876553		2.420946509		-0.320355444
F		1.270175863		0.046997972		-1.631162253
F		0.448513439		1.547162751		1.616086806
F		2.551418966		0.586583787		3.620390169
F		0.010865455		-1.189345579		2.818431946
