12
-187.38518821
Al		1.280318153		0.051644399		2.445059394
Al		1.276784		1.189243		-0.083083
Al		-0.316783276		0.833087881		-2.32347223
F		-1.660056458		-0.382143364		-2.224292606
F		2.052635807		-0.357294608		0.754322841
F		0.041453434		1.830143461		-3.793451823
F		-0.364291972		1.922947343		-0.76390657
F		2.587876553		2.420946509		-0.320355444
F		1.270791733		0.047492009		-1.631618076
F		0.449111453		1.547809095		1.616322948
F		2.552044319		0.585854451		3.620059599
F		0.010057813		-1.188403639		2.818858876
