12
-187.38518821
Al		1.280080829		0.051921187		2.445184846
Al		1.276784		1.189243		-0.083083
Al		-0.316545952		0.832811093		-2.323597682
F		-1.658979602		-0.383399284		-2.22486185
F		2.051554947		-0.357825752		0.754157849
F		0.040619634		1.831115913		-3.793011067
F		-0.364829628		1.921957975		-0.76344867
F		2.587876553		2.420946509		-0.320355444
F		1.271612893		0.048150725		-1.63222584
F		0.449908805		1.548670887		1.616637804
F		2.552878123		0.584882003		3.619618839
F		0.008980957		-1.187147719		2.819428116
