12
-187.38518821
Al		1.279902836		0.052128778		2.445278935
Al		1.276784		1.189243		-0.083083
Al		-0.316367959		0.832603502		-2.323691771
F		-1.65817196		-0.384341224		-2.225288783
F		2.050744302		-0.35822411		0.754034105
F		0.039994284		1.831845252		-3.7926805
F		-0.36523287		1.921215949		-0.763105245
F		2.587876553		2.420946509		-0.320355444
F		1.272228763		0.048644762		-1.632681663
F		0.450506819		1.549317231		1.616873946
F		2.553503476		0.584152667		3.619288269
F		0.008173315		-1.186205779		2.819855046
