12
-187.38518821
Al		1.279843505		0.052197975		2.445310298
Al		1.276784		1.189243		-0.083083
Al		-0.316308628		0.832534305		-2.323723134
F		-1.657902746		-0.384655204		-2.225431094
F		2.050474087		-0.358356896		0.753992857
F		0.039785834		1.832088365		-3.792570311
F		-0.365367284		1.920968607		-0.76299077
F		2.587876553		2.420946509		-0.320355444
F		1.272434053		0.048809441		-1.632833604
F		0.450706157		1.549532679		1.61695266
F		2.553711927		0.583909555		3.619178079
F		0.007904101		-1.185891799		2.819997356
