12
-187.38518821
Al		1.279784174		0.052267172		2.445341661
Al		1.276784		1.189243		-0.083083
Al		-0.316249297		0.832465108		-2.323754497
F		-1.657633532		-0.384969184		-2.225573405
F		2.050203872		-0.358489682		0.753951609
F		0.039577384		1.832331478		-3.792460122
F		-0.365501698		1.920721265		-0.762876295
F		2.587876553		2.420946509		-0.320355444
F		1.272639343		0.04897412		-1.632985545
F		0.450905495		1.549748127		1.617031374
F		2.553920378		0.583666443		3.619067889
F		0.007634887		-1.185577819		2.820139666
