12
-187.38518821
Al		1.279724843		0.052336369		2.445373024
Al		1.276784		1.189243		-0.083083
Al		-0.316189966		0.832395911		-2.32378586
F		-1.657364318		-0.385283164		-2.225715716
F		2.049933657		-0.358622468		0.753910361
F		0.039368934		1.832574591		-3.792349933
F		-0.365636112		1.920473923		-0.76276182
F		2.587876553		2.420946509		-0.320355444
F		1.272844633		0.049138799		-1.633137486
F		0.451104833		1.549963575		1.617110088
F		2.554128829		0.583423331		3.618957699
F		0.007365673		-1.185263839		2.820281976
