12
-187.38518821
Al		1.279428188		0.052682354		2.445529839
Al		1.276784		1.189243		-0.083083
Al		-0.315893311		0.832049926		-2.323942675
F		-1.656018248		-0.386853064		-2.226427271
F		2.048582582		-0.359286398		0.753704121
F		0.038326684		1.833790156		-3.791798988
F		-0.366308182		1.919237213		-0.762189445
F		2.587876553		2.420946509		-0.320355444
F		1.273871083		0.049962194		-1.633897191
F		0.452101523		1.551040815		1.617503658
F		2.555171084		0.582207771		3.618406749
F		0.006019603		-1.183693939		2.820993526
