12
-187.38518821
Al		1.279250195		0.052889945		2.445623928
Al		1.276784		1.189243		-0.083083
Al		-0.315715318		0.831842335		-2.324036764
F		-1.655210606		-0.387795004		-2.226854204
F		2.047771937		-0.359684756		0.753580377
F		0.037701334		1.834519495		-3.791468421
F		-0.366711424		1.918495187		-0.76184602
F		2.587876553		2.420946509		-0.320355444
F		1.274486953		0.050456231		-1.634353014
F		0.452699537		1.551687159		1.6177398
F		2.555796437		0.581478435		3.618076179
F		0.005211961		-1.182751999		2.821420456
