12
-187.38518821
Al		1.279012871		0.053166733		2.44574938
Al		1.276784		1.189243		-0.083083
Al		-0.315477994		0.831565547		-2.324162216
F		-1.65413375		-0.389050924		-2.227423448
F		2.046691077		-0.3602159		0.753415385
F		0.036867534		1.835491947		-3.791027665
F		-0.36724908		1.917505819		-0.76138812
F		2.587876553		2.420946509		-0.320355444
F		1.275308113		0.051114947		-1.634960778
F		0.453496889		1.552548951		1.618054656
F		2.556630241		0.580505987		3.617635419
F		0.004135105		-1.181496079		2.821989696
