12
-187.38518821
Al		1.27895354		0.05323593		2.445780743
Al		1.276784		1.189243		-0.083083
Al		-0.315418663		0.83149635		-2.324193579
F		-1.653864536		-0.389364904		-2.227565759
F		2.046420862		-0.360348686		0.753374137
F		0.036659084		1.83573506		-3.790917476
F		-0.367383494		1.917258477		-0.761273645
F		2.587876553		2.420946509		-0.320355444
F		1.275513403		0.051279626		-1.635112719
F		0.453696227		1.552764399		1.61813337
F		2.556838692		0.580262875		3.617525229
F		0.003865891		-1.181182099		2.822132006
