12
-187.38518821
Al		1.278894209		0.053305127		2.445812106
Al		1.276784		1.189243		-0.083083
Al		-0.315359332		0.831427153		-2.324224942
F		-1.653595322		-0.389678884		-2.22770807
F		2.046150647		-0.360481472		0.753332889
F		0.036450634		1.835978173		-3.790807287
F		-0.367517908		1.917011135		-0.76115917
F		2.587876553		2.420946509		-0.320355444
F		1.275718693		0.051444305		-1.63526466
F		0.453895565		1.552979847		1.618212084
F		2.557047143		0.580019763		3.617415039
F		0.003596677		-1.180868119		2.822274316
