12
-187.38518821
Al		1.278716216		0.053512718		2.445906195
Al		1.276784		1.189243		-0.083083
Al		-0.315181339		0.831219562		-2.324319031
F		-1.65278768		-0.390620824		-2.228135003
F		2.045340002		-0.36087983		0.753209145
F		0.035825284		1.836707512		-3.79047672
F		-0.36792115		1.916269109		-0.760815745
F		2.587876553		2.420946509		-0.320355444
F		1.276334563		0.051938342		-1.635720483
F		0.454493579		1.553626191		1.618448226
F		2.557672496		0.579290427		3.617084469
F		0.002789035		-1.179926179		2.822701246
