12
-187.38518821
Al		1.27836023		0.0539279		2.446094373
Al		1.276784		1.189243		-0.083083
Al		-0.314825353		0.83080438		-2.324507209
F		-1.651172396		-0.392504704		-2.228988869
F		2.043718712		-0.361676546		0.752961657
F		0.034574584		1.83816619		-3.789815586
F		-0.368727634		1.914785057		-0.760128895
F		2.587876553		2.420946509		-0.320355444
F		1.277566303		0.052926416		-1.636632129
F		0.455689607		1.554918879		1.61892051
F		2.558923202		0.577831755		3.616423329
F		0.001173751		-1.178042299		2.823555106
