12
-187.38518821
Al		1.278300899		0.053997097		2.446125736
Al		1.276784		1.189243		-0.083083
Al		-0.314766022		0.830735183		-2.324538572
F		-1.650903182		-0.392818684		-2.22913118
F		2.043448497		-0.361809332		0.752920409
F		0.034366134		1.838409303		-3.789705397
F		-0.368862048		1.914537715		-0.76001442
F		2.587876553		2.420946509		-0.320355444
F		1.277771593		0.053091095		-1.63678407
F		0.455888945		1.555134327		1.618999224
F		2.559131653		0.577588643		3.616313139
F		0.000904537		-1.177728319		2.823697416
