12
-187.38518821
Al		1.278063575		0.054273885		2.446251188
Al		1.276784		1.189243		-0.083083
Al		-0.314528698		0.830458395		-2.324664024
F		-1.649826326		-0.394074604		-2.229700424
F		2.042367637		-0.362340476		0.752755417
F		0.033532334		1.839381755		-3.789264641
F		-0.369399704		1.913548347		-0.75955652
F		2.587876553		2.420946509		-0.320355444
F		1.278592753		0.053749811		-1.637391834
F		0.456686297		1.555996119		1.61931408
F		2.559965457		0.576616195		3.615872379
F		-0.000172319		-1.176472399		2.824266656
