12
-187.38518821
Al		1.277351603		0.055104249		2.446627544
Al		1.276784		1.189243		-0.083083
Al		-0.313816726		0.829628031		-2.32504038
F		-1.646595758		-0.397842364		-2.231408156
F		2.039125057		-0.363933908		0.752260441
F		0.031030934		1.842299111		-3.787942373
F		-0.371012672		1.910580243		-0.75818282
F		2.587876553		2.420946509		-0.320355444
F		1.281056233		0.055725959		-1.639215126
F		0.459078353		1.558581495		1.620258648
F		2.562466869		0.573698851		3.614550099
F		-0.003402887		-1.172704639		2.825974376
