12
-187.38518821
Al		1.277292272		0.055173446		2.446658907
Al		1.276784		1.189243		-0.083083
Al		-0.313757395		0.829558834		-2.325071743
F		-1.646326544		-0.398156344		-2.231550467
F		2.038854842		-0.364066694		0.752219193
F		0.030822484		1.842542224		-3.787832184
F		-0.371147086		1.910332901		-0.758068345
F		2.587876553		2.420946509		-0.320355444
F		1.281261523		0.055890638		-1.639367067
F		0.459277691		1.558796943		1.620337362
F		2.56267532		0.573455739		3.614439909
F		-0.003672101		-1.172390659		2.826116686
