12
-187.38518821
Al		1.27717361		0.05531184		2.446721633
Al		1.276784		1.189243		-0.083083
Al		-0.313638733		0.82942044		-2.325134469
F		-1.645788116		-0.398784304		-2.231835089
F		2.038314412		-0.364332266		0.752136697
F		0.030405584		1.84302845		-3.787611806
F		-0.371415914		1.909838217		-0.757839395
F		2.587876553		2.420946509		-0.320355444
F		1.281672103		0.056219996		-1.639670949
F		0.459676367		1.559227839		1.62049479
F		2.563092222		0.572969515		3.614219529
F		-0.004210529		-1.171762699		2.826401306
