12
-187.38518821
Al		1.283344034		0.048115352		2.443459881
Al		1.276784		1.189243		-0.083083
Al		-0.319809157		0.836616928		-2.321872717
F		-1.673786372		-0.366130384		-2.217034745
F		2.066416772		-0.350522522		0.756426489
F		0.052084384		1.817744698		-3.799071462
F		-0.357436858		1.935561785		-0.769744795
F		2.587876553		2.420946509		-0.320355444
F		1.260321943		0.03909338		-1.623869085
F		0.438945215		1.536821247		1.612308534
F		2.541413318		0.598253163		3.625679289
F		0.023787727		-1.204416619		2.811601066
