12
-187.38518821
Al		1.283522027		0.047907761		2.443365792
Al		1.276784		1.189243		-0.083083
Al		-0.31998715		0.836824519		-2.321778628
F		-1.674594014		-0.365188444		-2.216607812
F		2.067227417		-0.350124164		0.756550233
F		0.052709734		1.817015359		-3.799402029
F		-0.357033616		1.936303811		-0.77008822
F		2.587876553		2.420946509		-0.320355444
F		1.259706073		0.038599343		-1.623413262
F		0.438347201		1.536174903		1.612072392
F		2.540787965		0.598982499		3.626009859
F		0.024595369		-1.205358559		2.811174136
