12
-187.38518821
Al		1.283640689		0.047769367		2.443303066
Al		1.276784		1.189243		-0.083083
Al		-0.320105812		0.836962913		-2.321715902
F		-1.675132442		-0.364560484		-2.21632319
F		2.067767847		-0.349858592		0.756632729
F		0.053126634		1.816529133		-3.799622407
F		-0.356764788		1.936798495		-0.77031717
F		2.587876553		2.420946509		-0.320355444
F		1.259295493		0.038269985		-1.62310938
F		0.437948525		1.535744007		1.611914964
F		2.540371063		0.599468723		3.626230239
F		0.025133797		-1.205986519		2.810889516
