12
-187.38518821
Al		1.283759351		0.047630973		2.44324034
Al		1.276784		1.189243		-0.083083
Al		-0.320224474		0.837101307		-2.321653176
F		-1.67567087		-0.363932524		-2.216038568
F		2.068308277		-0.34959302		0.756715225
F		0.053543534		1.816042907		-3.799842785
F		-0.35649596		1.937293179		-0.77054612
F		2.587876553		2.420946509		-0.320355444
F		1.258884913		0.037940627		-1.622805498
F		0.437549849		1.535313111		1.611757536
F		2.539954161		0.599954947		3.626450619
F		0.025672225		-1.206614479		2.810604896
