12
-187.38518821
Al		1.282750724		0.048807322		2.443773511
Al		1.276784		1.189243		-0.083083
Al		-0.319215847		0.835924958		-2.322186347
F		-1.671094232		-0.369270184		-2.218457855
F		2.063714622		-0.351850382		0.756014009
F		0.049999884		1.820175828		-3.797969572
F		-0.358780998		1.933088365		-0.768600045
F		2.587876553		2.420946509		-0.320355444
F		1.262374843		0.04074017		-1.625388495
F		0.440938595		1.538975727		1.613095674
F		2.543497828		0.595822043		3.624577389
F		0.021095587		-1.201276819		2.813024166
