12
-187.38518821
Al		1.283937344		0.047423382		2.443146251
Al		1.276784		1.189243		-0.083083
Al		-0.320402467		0.837308898		-2.321559087
F		-1.676478512		-0.362990584		-2.215611635
F		2.069118922		-0.349194662		0.756838969
F		0.054168884		1.815313568		-3.800173352
F		-0.356092718		1.938035205		-0.770889545
F		2.587876553		2.420946509		-0.320355444
F		1.258269043		0.03744659		-1.622349675
F		0.436951835		1.534666767		1.611521394
F		2.539328808		0.600684283		3.626781189
F		0.026479867		-1.207556419		2.810177966
