12
-187.38518821
Al		1.284174668		0.047146594		2.443020799
Al		1.276784		1.189243		-0.083083
Al		-0.320639791		0.837585686		-2.321433635
F		-1.677555368		-0.361734664		-2.215042391
F		2.070199782		-0.348663518		0.757003961
F		0.055002684		1.814341116		-3.800614108
F		-0.355555062		1.939024573		-0.771347445
F		2.587876553		2.420946509		-0.320355444
F		1.257447883		0.036787874		-1.621741911
F		0.436154483		1.533804975		1.611206538
F		2.538495004		0.601656731		3.627221949
F		0.027556723		-1.208812339		2.809608726
