12
-187.38518821
Al		1.28429333		0.0470082		2.442958073
Al		1.276784		1.189243		-0.083083
Al		-0.320758453		0.83772408		-2.321370909
F		-1.678093796		-0.361106704		-2.214757769
F		2.070740212		-0.348397946		0.757086457
F		0.055419584		1.81385489		-3.800834486
F		-0.355286234		1.939519257		-0.771576395
F		2.587876553		2.420946509		-0.320355444
F		1.257037303		0.036458516		-1.621438029
F		0.435755807		1.533374079		1.61104911
F		2.538078102		0.602142955		3.627442329
F		0.028095151		-1.209440299		2.809324106
