12
-187.38518821
Al		1.282810055		0.048738125		2.443742148
Al		1.276784		1.189243		-0.083083
Al		-0.319275178		0.835994155		-2.322154984
F		-1.671363446		-0.368956204		-2.218315544
F		2.063984837		-0.351717596		0.756055257
F		0.050208334		1.819932715		-3.798079761
F		-0.358646584		1.933335707		-0.76871452
F		2.587876553		2.420946509		-0.320355444
F		1.262169553		0.040575491		-1.625236554
F		0.440739257		1.538760279		1.61301696
F		2.543289377		0.596065155		3.624687579
F		0.021364801		-1.201590799		2.812881856
