12
-187.38518821
Al		1.284708647		0.046523821		2.442738532
Al		1.276784		1.189243		-0.083083
Al		-0.32117377		0.838208459		-2.321151368
F		-1.679978294		-0.358908844		-2.213761592
F		2.072631717		-0.347468444		0.757375193
F		0.056878734		1.812153099		-3.801605809
F		-0.354345336		1.941250651		-0.77237772
F		2.587876553		2.420946509		-0.320355444
F		1.255600273		0.035305763		-1.620374442
F		0.434360441		1.531865943		1.610498112
F		2.536618945		0.603844739		3.628213659
F		0.029979649		-1.211638159		2.808327936
