12
-187.38518821
Al		1.284767978		0.046454624		2.442707169
Al		1.276784		1.189243		-0.083083
Al		-0.321233101		0.838277656		-2.321120005
F		-1.680247508		-0.358594864		-2.213619281
F		2.072901932		-0.347335658		0.757416441
F		0.057087184		1.811909986		-3.801715998
F		-0.354210922		1.941497993		-0.772492195
F		2.587876553		2.420946509		-0.320355444
F		1.255394983		0.035141084		-1.620222501
F		0.434161103		1.531650495		1.610419398
F		2.536410494		0.604087851		3.628323849
F		0.030248863		-1.211952139		2.808185626
