12
-187.38518821
Al		1.284945971		0.046247033		2.44261308
Al		1.276784		1.189243		-0.083083
Al		-0.321411094		0.838485247		-2.321025916
F		-1.68105515		-0.357652924		-2.213192348
F		2.073712577		-0.3469373		0.757540185
F		0.057712534		1.811180647		-3.802046565
F		-0.35380768		1.942240019		-0.77283562
F		2.587876553		2.420946509		-0.320355444
F		1.254779113		0.034647047		-1.619766678
F		0.433563089		1.531004151		1.610183256
F		2.535785141		0.604817187		3.628654419
F		0.031056505		-1.212894079		2.807758696
