12
-187.38518821
Al		1.285005302		0.046177836		2.442581717
Al		1.276784		1.189243		-0.083083
Al		-0.321470425		0.838554444		-2.320994553
F		-1.681324364		-0.357338944		-2.213050037
F		2.073982792		-0.346804514		0.757581433
F		0.057920984		1.810937534		-3.802156754
F		-0.353673266		1.942487361		-0.772950095
F		2.587876553		2.420946509		-0.320355444
F		1.254573823		0.034482368		-1.619614737
F		0.433363751		1.530788703		1.610104542
F		2.53557669		0.605060299		3.628764609
F		0.031325719		-1.213208059		2.807616386
