12
-187.38518821
Al		1.285123964		0.046039442		2.442518991
Al		1.276784		1.189243		-0.083083
Al		-0.321589087		0.838692838		-2.320931827
F		-1.681862792		-0.356710984		-2.212765415
F		2.074523222		-0.346538942		0.757663929
F		0.058337884		1.810451308		-3.802377132
F		-0.353404438		1.942982045		-0.773179045
F		2.587876553		2.420946509		-0.320355444
F		1.254163243		0.03415301		-1.619310855
F		0.432965075		1.530357807		1.609947114
F		2.535159788		0.605546523		3.628984989
F		0.031864147		-1.213836019		2.807331766
