12
-187.38518821
Al		1.285242626		0.045901048		2.442456265
Al		1.276784		1.189243		-0.083083
Al		-0.321707749		0.838831232		-2.320869101
F		-1.68240122		-0.356083024		-2.212480793
F		2.075063652		-0.34627337		0.757746425
F		0.058754784		1.809965082		-3.80259751
F		-0.35313561		1.943476729		-0.773407995
F		2.587876553		2.420946509		-0.320355444
F		1.253752663		0.033823652		-1.619006973
F		0.432566399		1.529926911		1.609789686
F		2.534742886		0.606032747		3.629205369
F		0.032402575		-1.214463979		2.807047146
