12
-187.38518821
Al		1.285361288		0.045762654		2.442393539
Al		1.276784		1.189243		-0.083083
Al		-0.321826411		0.838969626		-2.320806375
F		-1.682939648		-0.355455064		-2.212196171
F		2.075604082		-0.346007798		0.757828921
F		0.059171684		1.809478856		-3.802817888
F		-0.352866782		1.943971413		-0.773636945
F		2.587876553		2.420946509		-0.320355444
F		1.253342083		0.033494294		-1.618703091
F		0.432167723		1.529496015		1.609632258
F		2.534325984		0.606518971		3.629425749
F		0.032941003		-1.215091939		2.806762526
