12
-187.38518821
Al		1.285598612		0.045485866		2.442268087
Al		1.276784		1.189243		-0.083083
Al		-0.322063735		0.839246414		-2.320680923
F		-1.684016504		-0.354199144		-2.211626927
F		2.076684942		-0.345476654		0.757993913
F		0.060005484		1.808506404		-3.803258644
F		-0.352329126		1.944960781		-0.774094845
F		2.587876553		2.420946509		-0.320355444
F		1.252520923		0.032835578		-1.618095327
F		0.431370371		1.528634223		1.609317402
F		2.53349218		0.607491419		3.629866509
F		0.034017859		-1.216347859		2.806193286
