12
-187.38518821
Al		1.285657943		0.045416669		2.442236724
Al		1.276784		1.189243		-0.083083
Al		-0.322123066		0.839315611		-2.32064956
F		-1.684285718		-0.353885164		-2.211484616
F		2.076955157		-0.345343868		0.758035161
F		0.060213934		1.808263291		-3.803368833
F		-0.352194712		1.945208123		-0.77420932
F		2.587876553		2.420946509		-0.320355444
F		1.252315633		0.032670899		-1.617943386
F		0.431171033		1.528418775		1.609238688
F		2.533283729		0.607734531		3.629976699
F		0.034287073		-1.216661839		2.806050976
