12
-187.38518821
Al		1.285776605		0.045278275		2.442173998
Al		1.276784		1.189243		-0.083083
Al		-0.322241728		0.839454005		-2.320586834
F		-1.684824146		-0.353257204		-2.211199994
F		2.077495587		-0.345078296		0.758117657
F		0.060630834		1.807777065		-3.803589211
F		-0.351925884		1.945702807		-0.77443827
F		2.587876553		2.420946509		-0.320355444
F		1.251905053		0.032341541		-1.617639504
F		0.430772357		1.527987879		1.60908126
F		2.532866827		0.608220755		3.630197079
F		0.034825501		-1.217289799		2.805766356
