12
-187.38518821
Al		1.285954598		0.045070684		2.442079909
Al		1.276784		1.189243		-0.083083
Al		-0.322419721		0.839661596		-2.320492745
F		-1.685631788		-0.352315264		-2.210773061
F		2.078306232		-0.344679938		0.758241401
F		0.061256184		1.807047726		-3.803919778
F		-0.351522642		1.946444833		-0.774781695
F		2.587876553		2.420946509		-0.320355444
F		1.251289183		0.031847504		-1.617183681
F		0.430174343		1.527341535		1.608845118
F		2.532241474		0.608950091		3.630527649
F		0.035633143		-1.218231739		2.805339426
