12
-187.38518821
Al		1.28607326		0.04493229		2.442017183
Al		1.276784		1.189243		-0.083083
Al		-0.322538383		0.83979999		-2.320430019
F		-1.686170216		-0.351687304		-2.210488439
F		2.078846662		-0.344414366		0.758323897
F		0.061673084		1.8065615		-3.804140156
F		-0.351253814		1.946939517		-0.775010645
F		2.587876553		2.420946509		-0.320355444
F		1.250878603		0.031518146		-1.616879799
F		0.429775667		1.526910639		1.60868769
F		2.531824572		0.609436315		3.630748029
F		0.036171571		-1.218859699		2.805054806
