12
-187.38518821
Al		1.282988048		0.048530534		2.443648059
Al		1.276784		1.189243		-0.083083
Al		-0.319453171		0.836201746		-2.322060895
F		-1.672171088		-0.368014264		-2.217888611
F		2.064795482		-0.351319238		0.756179001
F		0.050833684		1.819203376		-3.798410328
F		-0.358243342		1.934077733		-0.769057945
F		2.587876553		2.420946509		-0.320355444
F		1.261553683		0.040081454		-1.624780731
F		0.440141243		1.538113935		1.612780818
F		2.542664024		0.596794491		3.625018149
F		0.022172443		-1.202532739		2.812454926
