12
-187.38518821
Al		1.286310584		0.044655502		2.441891731
Al		1.276784		1.189243		-0.083083
Al		-0.322775707		0.840076778		-2.320304567
F		-1.687247072		-0.350431384		-2.209919195
F		2.079927522		-0.343883222		0.758488889
F		0.062506884		1.805589048		-3.804580912
F		-0.350716158		1.947928885		-0.775468545
F		2.587876553		2.420946509		-0.320355444
F		1.250057443		0.03085943		-1.616272035
F		0.428978315		1.526048847		1.608372834
F		2.530990768		0.610408763		3.631188789
F		0.037248427		-1.220115619		2.804485566
