12
-187.38518821
Al		1.286369915		0.044586305		2.441860368
Al		1.276784		1.189243		-0.083083
Al		-0.322835038		0.840145975		-2.320273204
F		-1.687516286		-0.350117404		-2.209776884
F		2.080197737		-0.343750436		0.758530137
F		0.062715334		1.805345935		-3.804691101
F		-0.350581744		1.948176227		-0.77558302
F		2.587876553		2.420946509		-0.320355444
F		1.249852153		0.030694751		-1.616120094
F		0.428778977		1.525833399		1.60829412
F		2.530782317		0.610651875		3.631298979
F		0.037517641		-1.220429599		2.804343256
