12
-187.38518821
Al		1.286429246		0.044517108		2.441829005
Al		1.276784		1.189243		-0.083083
Al		-0.322894369		0.840215172		-2.320241841
F		-1.6877855		-0.349803424		-2.209634573
F		2.080467952		-0.34361765		0.758571385
F		0.062923784		1.805102822		-3.80480129
F		-0.35044733		1.948423569		-0.775697495
F		2.587876553		2.420946509		-0.320355444
F		1.249646863		0.030530072		-1.615968153
F		0.428579639		1.525617951		1.608215406
F		2.530573866		0.610894987		3.631409169
F		0.037786855		-1.220743579		2.804200946
