12
-187.38518821
Al		1.286488577		0.044447911		2.441797642
Al		1.276784		1.189243		-0.083083
Al		-0.3229537		0.840284369		-2.320210478
F		-1.688054714		-0.349489444		-2.209492262
F		2.080738167		-0.343484864		0.758612633
F		0.063132234		1.804859709		-3.804911479
F		-0.350312916		1.948670911		-0.77581197
F		2.587876553		2.420946509		-0.320355444
F		1.249441573		0.030365393		-1.615816212
F		0.428380301		1.525402503		1.608136692
F		2.530365415		0.611138099		3.631519359
F		0.038056069		-1.221057559		2.804058636
