12
-187.38518821
Al		1.286607239		0.044309517		2.441734916
Al		1.276784		1.189243		-0.083083
Al		-0.323072362		0.840422763		-2.320147752
F		-1.688593142		-0.348861484		-2.20920764
F		2.081278597		-0.343219292		0.758695129
F		0.063549134		1.804373483		-3.805131857
F		-0.350044088		1.949165595		-0.77604092
F		2.587876553		2.420946509		-0.320355444
F		1.249030993		0.030036035		-1.61551233
F		0.427981625		1.524971607		1.607979264
F		2.529948513		0.611624323		3.631739739
F		0.038594497		-1.221685519		2.803774016
