12
-187.38518821
Al		1.286725901		0.044171123		2.44167219
Al		1.276784		1.189243		-0.083083
Al		-0.323191024		0.840561157		-2.320085026
F		-1.68913157		-0.348233524		-2.208923018
F		2.081819027		-0.34295372		0.758777625
F		0.063966034		1.803887257		-3.805352235
F		-0.34977526		1.949660279		-0.77626987
F		2.587876553		2.420946509		-0.320355444
F		1.248620413		0.029706677		-1.615208448
F		0.427582949		1.524540711		1.607821836
F		2.529531611		0.612110547		3.631960119
F		0.039132925		-1.222313479		2.803489396
