12
-187.38518821
Al		1.286844563		0.044032729		2.441609464
Al		1.276784		1.189243		-0.083083
Al		-0.323309686		0.840699551		-2.3200223
F		-1.689669998		-0.347605564		-2.208638396
F		2.082359457		-0.342688148		0.758860121
F		0.064382934		1.803401031		-3.805572613
F		-0.349506432		1.950154963		-0.77649882
F		2.587876553		2.420946509		-0.320355444
F		1.248209833		0.029377319		-1.614904566
F		0.427184273		1.524109815		1.607664408
F		2.529114709		0.612596771		3.632180499
F		0.039671353		-1.222941439		2.803204776
