12
-187.38518821
Al		1.287081887		0.043755941		2.441484012
Al		1.276784		1.189243		-0.083083
Al		-0.32354701		0.840976339		-2.319896848
F		-1.690746854		-0.346349644		-2.208069152
F		2.083440317		-0.342157004		0.759025113
F		0.065216734		1.802428579		-3.806013369
F		-0.348968776		1.951144331		-0.77695672
F		2.587876553		2.420946509		-0.320355444
F		1.247388673		0.028718603		-1.614296802
F		0.426386921		1.523248023		1.607349552
F		2.528280905		0.613569219		3.632621259
F		0.040748209		-1.224197359		2.802635536
