12
-187.38518821
Al		1.28725988		0.04354835		2.441389923
Al		1.276784		1.189243		-0.083083
Al		-0.323725003		0.84118393		-2.319802759
F		-1.691554496		-0.345407704		-2.207642219
F		2.084250962		-0.341758646		0.759148857
F		0.065842084		1.80169924		-3.806343936
F		-0.348565534		1.951886357		-0.777300145
F		2.587876553		2.420946509		-0.320355444
F		1.246772803		0.028224566		-1.613840979
F		0.425788907		1.522601679		1.60711341
F		2.527655552		0.614298555		3.632951829
F		0.041555851		-1.225139299		2.802208606
