12
-187.38518821
Al		1.287378542		0.043409956		2.441327197
Al		1.276784		1.189243		-0.083083
Al		-0.323843665		0.841322324		-2.319740033
F		-1.692092924		-0.344779744		-2.207357597
F		2.084791392		-0.341493074		0.759231353
F		0.066258984		1.801213014		-3.806564314
F		-0.348296706		1.952381041		-0.777529095
F		2.587876553		2.420946509		-0.320355444
F		1.246362223		0.027895208		-1.613537097
F		0.425390231		1.522170783		1.606955982
F		2.52723865		0.614784779		3.633172209
F		0.042094279		-1.225767259		2.801923986
