12
-187.38518821
Al		1.287556535		0.043202365		2.441233108
Al		1.276784		1.189243		-0.083083
Al		-0.324021658		0.841529915		-2.319645944
F		-1.692900566		-0.343837804		-2.206930664
F		2.085602037		-0.341094716		0.759355097
F		0.066884334		1.800483675		-3.806894881
F		-0.347893464		1.953123067		-0.77787252
F		2.587876553		2.420946509		-0.320355444
F		1.245746353		0.027401171		-1.613081274
F		0.424792217		1.521524439		1.60671984
F		2.526613297		0.615514115		3.633502779
F		0.042901921		-1.226709199		2.801497056
