12
-187.38518821
Al		1.287734528		0.042994774		2.441139019
Al		1.276784		1.189243		-0.083083
Al		-0.324199651		0.841737506		-2.319551855
F		-1.693708208		-0.342895864		-2.206503731
F		2.086412682		-0.340696358		0.759478841
F		0.067509684		1.799754336		-3.807225448
F		-0.347490222		1.953865093		-0.778215945
F		2.587876553		2.420946509		-0.320355444
F		1.245130483		0.026907134		-1.612625451
F		0.424194203		1.520878095		1.606483698
F		2.525987944		0.616243451		3.633833349
F		0.043709563		-1.227651139		2.801070126
