12
-187.38518821
Al		1.28785319		0.04285638		2.441076293
Al		1.276784		1.189243		-0.083083
Al		-0.324318313		0.8418759		-2.319489129
F		-1.694246636		-0.342267904		-2.206219109
F		2.086953112		-0.340430786		0.759561337
F		0.067926584		1.79926811		-3.807445826
F		-0.347221394		1.954359777		-0.778444895
F		2.587876553		2.420946509		-0.320355444
F		1.244719903		0.026577776		-1.612321569
F		0.423795527		1.520447199		1.60632627
F		2.525571042		0.616729675		3.634053729
F		0.044247991		-1.228279099		2.800785506
