12
-187.38518821
Al		1.287912521		0.042787183		2.44104493
Al		1.276784		1.189243		-0.083083
Al		-0.324377644		0.841945097		-2.319457766
F		-1.69451585		-0.341953924		-2.206076798
F		2.087223327		-0.340298		0.759602585
F		0.068135034		1.799024997		-3.807556015
F		-0.34708698		1.954607119		-0.77855937
F		2.587876553		2.420946509		-0.320355444
F		1.244514613		0.026413097		-1.612169628
F		0.423596189		1.520231751		1.606247556
F		2.525362591		0.616972787		3.634163919
F		0.044517205		-1.228593079		2.800643196
