12
-187.38518821
Al		1.288031183		0.042648789		2.440982204
Al		1.276784		1.189243		-0.083083
Al		-0.324496306		0.842083491		-2.31939504
F		-1.695054278		-0.341325964		-2.205792176
F		2.087763757		-0.340032428		0.759685081
F		0.068551934		1.798538771		-3.807776393
F		-0.346818152		1.955101803		-0.77878832
F		2.587876553		2.420946509		-0.320355444
F		1.244104033		0.026083739		-1.611865746
F		0.423197513		1.519800855		1.606090128
F		2.524945689		0.617459011		3.634384299
F		0.045055633		-1.229221039		2.800358576
