12
-187.38518821
Al		1.288090514		0.042579592		2.440950841
Al		1.276784		1.189243		-0.083083
Al		-0.324555637		0.842152688		-2.319363677
F		-1.695323492		-0.341011984		-2.205649865
F		2.088033972		-0.339899642		0.759726329
F		0.068760384		1.798295658		-3.807886582
F		-0.346683738		1.955349145		-0.778902795
F		2.587876553		2.420946509		-0.320355444
F		1.243898743		0.02591906		-1.611713805
F		0.422998175		1.519585407		1.606011414
F		2.524737238		0.617702123		3.634494489
F		0.045324847		-1.229535019		2.800216266
