12
-187.38518821
Al		1.288149845		0.042510395		2.440919478
Al		1.276784		1.189243		-0.083083
Al		-0.324614968		0.842221885		-2.319332314
F		-1.695592706		-0.340698004		-2.205507554
F		2.088304187		-0.339766856		0.759767577
F		0.068968834		1.798052545		-3.807996771
F		-0.346549324		1.955596487		-0.77901727
F		2.587876553		2.420946509		-0.320355444
F		1.243693453		0.025754381		-1.611561864
F		0.422798837		1.519369959		1.6059327
F		2.524528787		0.617945235		3.634604679
F		0.045594061		-1.229848999		2.800073956
