12
-187.38518821
Al		1.288327838		0.042302804		2.440825389
Al		1.276784		1.189243		-0.083083
Al		-0.324792961		0.842429476		-2.319238225
F		-1.696400348		-0.339756064		-2.205080621
F		2.089114832		-0.339368498		0.759891321
F		0.069594184		1.797323206		-3.808327338
F		-0.346146082		1.956338513		-0.779360695
F		2.587876553		2.420946509		-0.320355444
F		1.243077583		0.025260344		-1.611106041
F		0.422200823		1.518723615		1.605696558
F		2.523903434		0.618674571		3.634935249
F		0.046401703		-1.230790939		2.799647026
