12
-187.38518821
Al		1.288387169		0.042233607		2.440794026
Al		1.276784		1.189243		-0.083083
Al		-0.324852292		0.842498673		-2.319206862
F		-1.696669562		-0.339442084		-2.20493831
F		2.089385047		-0.339235712		0.759932569
F		0.069802634		1.797080093		-3.808437527
F		-0.346011668		1.956585855		-0.77947517
F		2.587876553		2.420946509		-0.320355444
F		1.242872293		0.025095665		-1.6109541
F		0.422001485		1.518508167		1.605617844
F		2.523694983		0.618917683		3.635045439
F		0.046670917		-1.231104919		2.799504716
