12
-187.38518821
Al		1.2884465		0.04216441		2.440762663
Al		1.276784		1.189243		-0.083083
Al		-0.324911623		0.84256787		-2.319175499
F		-1.696938776		-0.339128104		-2.204795999
F		2.089655262		-0.339102926		0.759973817
F		0.070011084		1.79683698		-3.808547716
F		-0.345877254		1.956833197		-0.779589645
F		2.587876553		2.420946509		-0.320355444
F		1.242667003		0.024930986		-1.610802159
F		0.421802147		1.518292719		1.60553913
F		2.523486532		0.619160795		3.635155629
F		0.046940131		-1.231418899		2.799362406
