12
-187.38518821
Al		1.288505831		0.042095213		2.4407313
Al		1.276784		1.189243		-0.083083
Al		-0.324970954		0.842637067		-2.319144136
F		-1.69720799		-0.338814124		-2.204653688
F		2.089925477		-0.33897014		0.760015065
F		0.070219534		1.796593867		-3.808657905
F		-0.34574284		1.957080539		-0.77970412
F		2.587876553		2.420946509		-0.320355444
F		1.242461713		0.024766307		-1.610650218
F		0.421602809		1.518077271		1.605460416
F		2.523278081		0.619403907		3.635265819
F		0.047209345		-1.231732879		2.799220096
