12
Properties=species:S:1:pos:R:3:forces:R:3 energy=-186.39052662 pbc="F F F"
Al    -0.094969257    1.679982196    2.1464557209999997    0.033429    0.124932    -0.045196
Al    2.530379896    2.564248425    1.7481953749999999    0.061443    0.056816    0.0175
Al    1.352546858    2.6312947810000002    -0.6624106529999999    0.006919    -0.022303    0.057981
F    1.058368952    2.958900319    2.973671432    -0.006169    -0.003888    -0.004055
F    -1.5725479470000001    2.790381743    1.8133778950000001    -0.021892    0.021413    0.003979
F    -0.47242226000000004    0.132362182    3.28161966    -0.036443    -0.140499    0.018412
F    1.7914195689999999    0.826146785    1.719302834    0.002564    -0.036629    0.004062
F    3.068555742    1.986766672    -0.164201454    -0.007779    -0.005148    -0.014518
F    1.075291114    3.097760552    -2.390625004    -0.00868    0.002174    -0.03723
F    1.581266268    3.948117587    0.726792665    0.000976    0.008693    -0.00173
F    4.0974671659999995    3.1094532110000004    2.4703777679999996    -0.030163    -0.008061    -0.014421
F    0.034701800000000005    1.646908968    0.15431770499999997    0.005797    0.002503    0.015216
