      12
SCF Done            -186.39052662
Al           -0.078091257         1.646501196         2.155473721
Al            2.530859896         2.618815425         1.772686375
Al            1.359999858         2.657387781        -0.639671653
F             0.993227952         3.122699319         2.810746432
F            -1.578305947         2.688440743         2.256944895
F            -0.509662260        -0.068452818         2.611778660
F             1.824652569         0.878399785         1.987875834
F             2.949293742         1.826669672        -0.054729454
F             1.074048114         2.995737552        -2.394051004
F             1.779306268         4.024020587         0.612429665
F             4.116322166         3.150500211         2.452431768
F            -0.016346200         1.822561968         0.234180705
