12
Properties=species:S:1:pos:R:3:forces:R:3 energy=-174.38905855 pbc="F F F"
Al    0.510714172    -2.384163911    -1.329844961    -2.53928    6.517921    11.621234
Al    1.96326233    -1.127713556    -0.48800872399999995    -11.676342    -2.764195    6.324978
Al    -0.715738006    0.283733603    -1.489437183    0.632726    -7.179392    11.490894
F    3.6660292880000003    -0.14813491599999998    -0.048690623    1.251534    0.295203    -0.564741
F    -0.185018974    -4.111334193    -2.297281236    0.217671    -0.755095    -1.164024
F    2.2915748380000003    -1.861245176    -2.541841789    3.041619    -0.506871    -4.359073
F    1.627611595    0.751677339    -2.38295842    2.490987    1.870858    -4.336445
F    -1.393260422    1.560939231    -2.155343511    -0.14125    0.7948    -1.149273
F    -1.131416286    -0.8336994520000001    -1.1150831689999998    5.166127    1.221397    -2.628353
F    -0.11255997400000001    -1.030486609    -3.4359872809999996    0.904868    0.259565    -5.255824
F    0.26155619599999996    0.534880298    -0.199907602    1.041594    -2.968591    -5.019109
F    1.158993134    -1.74590131    -0.478583573    -0.390253    3.214399    -4.960265
