12
Properties=species:S:1:pos:R:3:forces:R:3 energy=-187.36899384 pbc="F F F"
Al    1.34154368    -0.228620483    2.356237873    -0.584528    -0.476355    -0.050825
Al    1.2133338    1.2717611999999998    -0.0083938    0.051757    -0.013428    0.083207
Al    -0.313989762    1.02914125    -2.313561373    0.444479    0.526404    -0.293857
F    -1.599507972    -0.29394745299999997    -2.333227606    -0.335658    -0.296804    0.025329
F    2.2479150530000003    -0.252717353    0.675652052    0.039248    0.033088    -0.050051
F    0.013475739000000014    2.13758529    -3.6978545329999997    -0.088841    -0.177056    0.225182
F    -0.45735641000000005    1.955173353    -0.673212849    -0.062305    -0.019653    -0.029324
F    2.398405157    2.6679677120000003    -0.09776684299999999    0.021455    0.024384    -0.011765
F    1.313836039    0.24629400499999998    -1.655389054    -0.031937    -0.040538    -0.023173
F    0.261502517    1.266219029    1.674795639    0.014412    0.062543    -0.036331
F    2.456137569    0.43996747599999997    3.6625542369999997    0.246538    0.112143    0.21383
F    0.304532275    -1.737176352    2.5254188710000003    0.285381    0.265273    -0.052222
