      12
SCF Done            -155.68999948
Al           -1.712140189         2.554907085        -1.241522806
Al           -0.651740970        -0.032683396        -2.220925356
Al           -2.084501786        -0.324200312        -0.648744249
F            -0.770410880         3.667759511        -0.176958973
F            -3.031472370         3.205868866        -2.323155119
F            -1.381316688        -2.195459837        -1.820859354
F            -2.643644880         1.522724310         0.245841985
F            -3.079200530        -1.140549746         0.423518964
F             0.435427890        -0.425446060        -3.433113600
F            -0.173249893         2.025363522        -2.464944122
F            -2.473860957         0.504742551        -2.315840428
F            -0.260683563         0.208141580        -0.353922788
