12
-187.38518821
Al		1.282713612		0.049965096		2.441741427
Al		1.27476859		1.19023306		-0.08908005
Al		-0.320496655		0.835414604		-2.324075853
F		-1.668567314		-0.368133284		-2.218874597
F		2.063721572		-0.353567024		0.757721483
F		0.049096714		1.819359474		-3.795795184
F		-0.357312286		1.932260701		-0.766796505
F		2.587912413		2.420928889		-0.320248744
F		1.263542873		0.041879608		-1.623599697
F		0.440904561		1.539098613		1.615561162
F		2.54558331		0.596057609		3.625921049
F		0.018712969		-1.202484609		2.813870276
