12
-187.38518821
Al		1.282721767		0.050067034		2.441531946
Al		1.274567049		1.190332066		-0.089679755
Al		-0.320636602		0.835377408		-2.324258531
F		-1.668368465		-0.367956798		-2.218887809
F		2.06377631		-0.353712131		0.75790048
F		0.049048087		1.819229216		-3.795599783
F		-0.357138532		1.932227403		-0.766639046
F		2.587915999		2.420927127		-0.320238074
F		1.263618618		0.041960616		-1.623390429
F		0.44086129		1.539067812		1.615791968
F		2.545750168		0.596129788		3.626077453
F		0.01852855		-1.202668184		2.813926425
