12
-187.38518821
Al		1.282754387		0.050474786		2.440694022
Al		1.273760885		1.19072809		-0.092078575
Al		-0.32119639		0.835228624		-2.324989243
F		-1.667573069		-0.367250854		-2.218940657
F		2.063995262		-0.354292559		0.758616468
F		0.048853579		1.818708184		-3.794818179
F		-0.356443516		1.932094211		-0.76600921
F		2.587930343		2.420920079		-0.320195394
F		1.263921598		0.042284648		-1.622553357
F		0.440688206		1.538944608		1.616715192
F		2.5464176		0.596418504		3.626703069
F		0.017790874		-1.203402484		2.814151021
