12
-187.38518821
Al		1.282795162		0.050984476		2.439646617
Al		1.27275318		1.19122312		-0.0950771
Al		-0.321896125		0.835042644		-2.325902633
F		-1.666578824		-0.366368424		-2.219006717
F		2.064268952		-0.355018094		0.759511453
F		0.048610444		1.818056894		-3.793841174
F		-0.355574746		1.931927721		-0.765221915
F		2.587948273		2.420911269		-0.320142044
F		1.264300323		0.042689688		-1.621507017
F		0.440471851		1.538790603		1.617869222
F		2.54725189		0.596779399		3.627485089
F		0.016868779		-1.204320359		2.814431766
