12
-187.38518821
Al		1.282835937		0.051494166		2.438599212
Al		1.271745475		1.19171815		-0.098075625
Al		-0.32259586		0.834856664		-2.326816023
F		-1.665584579		-0.365485994		-2.219072777
F		2.064542642		-0.355743629		0.760406438
F		0.048367309		1.817405604		-3.792864169
F		-0.354705976		1.931761231		-0.76443462
F		2.587966203		2.420902459		-0.320088694
F		1.264679048		0.043094728		-1.620460677
F		0.440255496		1.538636598		1.619023252
F		2.54808618		0.597140294		3.628267109
F		0.015946684		-1.205238234		2.814712511
