12
-187.38518821
Al		1.282852247		0.051698042		2.43818025
Al		1.271342393		1.191916162		-0.099275035
Al		-0.322875754		0.834782272		-2.327181379
F		-1.665186881		-0.365133022		-2.219099201
F		2.064652118		-0.356033843		0.760764432
F		0.048270055		1.817145088		-3.792473367
F		-0.354358468		1.931694635		-0.764119702
F		2.587973375		2.420898935		-0.320067354
F		1.264830538		0.043256744		-1.620042141
F		0.440168954		1.538574996		1.619484864
F		2.548419896		0.597284652		3.628579917
F		0.015577846		-1.205605384		2.814824809
