12
-187.38518821
Al		1.282860402		0.05179998		2.437970769
Al		1.271140852		1.192015168		-0.09987474
Al		-0.323015701		0.834745076		-2.327364057
F		-1.664988032		-0.364956536		-2.219112413
F		2.064706856		-0.35617895		0.760943429
F		0.048221428		1.81701483		-3.792277966
F		-0.354184714		1.931661337		-0.763962243
F		2.587976961		2.420897173		-0.320056684
F		1.264906283		0.043337752		-1.619832873
F		0.440125683		1.538544195		1.61971567
F		2.548586754		0.597356831		3.628736321
F		0.015393427		-1.205788959		2.814880958
