12
-187.38518821
Al		1.282868557		0.051901918		2.437761288
Al		1.270939311		1.192114174		-0.100474445
Al		-0.323155648		0.83470788		-2.327546735
F		-1.664789183		-0.36478005		-2.219125625
F		2.064761594		-0.356324057		0.761122426
F		0.048172801		1.816884572		-3.792082565
F		-0.35401096		1.931628039		-0.763804784
F		2.587980547		2.420895411		-0.320046014
F		1.264982028		0.04341876		-1.619623605
F		0.440082412		1.538513394		1.619946476
F		2.548753612		0.59742901		3.628892725
F		0.015209008		-1.205972534		2.814937107
