12
-187.38518821
Al		1.282884867		0.052105794		2.437342326
Al		1.270536229		1.192312186		-0.101673855
Al		-0.323435542		0.834633488		-2.327912091
F		-1.664391485		-0.364427078		-2.219152049
F		2.06487107		-0.356614271		0.76148042
F		0.048075547		1.816624056		-3.791691763
F		-0.353663452		1.931561443		-0.763489866
F		2.587987719		2.420891887		-0.320024674
F		1.265133518		0.043580776		-1.619205069
F		0.43999587		1.538451792		1.620408088
F		2.549087328		0.597573368		3.629205533
F		0.01484017		-1.206339684		2.815049405
