12
-187.38518821
Al		1.282893022		0.052207732		2.437132845
Al		1.270334688		1.192411192		-0.10227356
Al		-0.323575489		0.834596292		-2.328094769
F		-1.664192636		-0.364250592		-2.219165261
F		2.064925808		-0.356759378		0.761659417
F		0.04802692		1.816493798		-3.791496362
F		-0.353489698		1.931528145		-0.763332407
F		2.587991305		2.420890125		-0.320014004
F		1.265209263		0.043661784		-1.618995801
F		0.439952599		1.538420991		1.620638894
F		2.549254186		0.597645547		3.629361937
F		0.014655751		-1.206523259		2.815105554
