12
-187.38518821
Al		1.282933797		0.052717422		2.43608544
Al		1.269326983		1.192906222		-0.105272085
Al		-0.324275224		0.834410312		-2.329008159
F		-1.663198391		-0.363368162		-2.219231321
F		2.065199498		-0.357484913		0.762554402
F		0.047783785		1.815842508		-3.790519357
F		-0.352620928		1.931361655		-0.762545112
F		2.588009235		2.420881315		-0.319960654
F		1.265587988		0.044066824		-1.617949461
F		0.439736244		1.538266986		1.621792924
F		2.550088476		0.598006442		3.630143957
F		0.013733656		-1.207441134		2.815386299
