12
-187.38518821
Al		1.282958262		0.053023236		2.435456997
Al		1.26872236		1.19320324		-0.1070712
Al		-0.324695065		0.834298724		-2.329556193
F		-1.662601844		-0.362838704		-2.219270957
F		2.065363712		-0.357920234		0.763091393
F		0.047637904		1.815451734		-3.789933154
F		-0.352099666		1.931261761		-0.762072735
F		2.588019993		2.420876029		-0.319928644
F		1.265815223		0.044309848		-1.617321657
F		0.439606431		1.538174583		1.622485342
F		2.55058905		0.598222979		3.630613169
F		0.013180399		-1.207991859		2.815554746
