12
-187.38518821
Al		1.282982727		0.05332905		2.434828554
Al		1.268117737		1.193500258		-0.108870315
Al		-0.325114906		0.834187136		-2.330104227
F		-1.662005297		-0.362309246		-2.219310593
F		2.065527926		-0.358355555		0.763628384
F		0.047492023		1.81506096		-3.789346951
F		-0.351578404		1.931161867		-0.761600358
F		2.588030751		2.420870743		-0.319896634
F		1.266042458		0.044552872		-1.616693853
F		0.439476618		1.53808218		1.62317776
F		2.551089624		0.598439516		3.631082381
F		0.012627142		-1.208542584		2.815723193
