12
-187.38518821
Al		1.283056122		0.054246492		2.432943225
Al		1.266303868		1.194391312		-0.11426766
Al		-0.326374429		0.833852372		-2.331748329
F		-1.660215656		-0.360720872		-2.219429501
F		2.066020568		-0.359661518		0.765239357
F		0.04705438		1.813888638		-3.787588342
F		-0.350014618		1.930862185		-0.760183227
F		2.588063025		2.420854885		-0.319800604
F		1.266724163		0.045281944		-1.614810441
F		0.439087179		1.537804971		1.625255014
F		2.552591346		0.599089127		3.632490017
F		0.010967371		-1.210194759		2.816228534
