12
-187.38518821
Al		1.283080587		0.054552306		2.432314782
Al		1.265699245		1.19468833		-0.116066775
Al		-0.32679427		0.833740784		-2.332296363
F		-1.659619109		-0.360191414		-2.219469137
F		2.066184782		-0.360096839		0.765776348
F		0.046908499		1.813497864		-3.787002139
F		-0.349493356		1.930762291		-0.75971085
F		2.588073783		2.420849599		-0.319768594
F		1.266951398		0.045524968		-1.614182637
F		0.438957366		1.537712568		1.625947432
F		2.55309192		0.599305664		3.632959229
F		0.010414114		-1.210745484		2.816396981
