12
-187.38518821
Al		1.283088742		0.054654244		2.432105301
Al		1.265497704		1.194787336		-0.11666648
Al		-0.326934217		0.833703588		-2.332479041
F		-1.65942026		-0.360014928		-2.219482349
F		2.06623952		-0.360241946		0.765955345
F		0.046859872		1.813367606		-3.786806738
F		-0.349319602		1.930728993		-0.759553391
F		2.588077369		2.420847837		-0.319757924
F		1.267027143		0.045605976		-1.613973369
F		0.438914095		1.537681767		1.626178238
F		2.553258778		0.599377843		3.633115633
F		0.010229695		-1.210929059		2.81645313
