12
-187.38518821
Al		1.282680992		0.049557344		2.442579351
Al		1.275574754		1.189837036		-0.08668123
Al		-0.319936867		0.835563388		-2.323345141
F		-1.66936271		-0.368839228		-2.218821749
F		2.06350262		-0.352986596		0.757005495
F		0.049291222		1.819880506		-3.796576788
F		-0.358007302		1.932393893		-0.767426341
F		2.587898069		2.420935937		-0.320291424
F		1.263239893		0.041555576		-1.624436769
F		0.441077645		1.539221817		1.614637938
F		2.544915878		0.595768893		3.625295433
F		0.019450645		-1.201750309		2.81364568
