12
-187.38518821
Al		1.283129517		0.055163934		2.431057896
Al		1.264489999		1.195282366		-0.119665005
Al		-0.327633952		0.833517608		-2.333392431
F		-1.658426015		-0.359132498		-2.219548409
F		2.06651321		-0.360967481		0.76685033
F		0.046616737		1.812716316		-3.785829733
F		-0.348450832		1.930562503		-0.758766096
F		2.588095299		2.420839027		-0.319704574
F		1.267405868		0.046011016		-1.612927029
F		0.43869774		1.537527762		1.627332268
F		2.554093068		0.599738738		3.633897653
F		0.0093076		-1.211846934		2.816733875
