12
-187.38518821
Al		1.283170292		0.055673624		2.430010491
Al		1.263482294		1.195777396		-0.12266353
Al		-0.328333687		0.833331628		-2.334305821
F		-1.65743177		-0.358250068		-2.219614469
F		2.0667869		-0.361693016		0.767745315
F		0.046373602		1.812065026		-3.784852728
F		-0.347582062		1.930396013		-0.757978801
F		2.588113229		2.420830217		-0.319651224
F		1.267784593		0.046416056		-1.611880689
F		0.438481385		1.537373757		1.628486298
F		2.554927358		0.600099633		3.634679673
F		0.008385505		-1.212764809		2.81701462
