12
-187.38518821
Al		1.283178447		0.055775562		2.42980101
Al		1.263280753		1.195876402		-0.123263235
Al		-0.328473634		0.833294432		-2.334488499
F		-1.657232921		-0.358073582		-2.219627681
F		2.066841638		-0.361838123		0.767924312
F		0.046324975		1.811934768		-3.784657327
F		-0.347408308		1.930362715		-0.757821342
F		2.588116815		2.420828455		-0.319640554
F		1.267860338		0.046497064		-1.611671421
F		0.438438114		1.537342956		1.628717104
F		2.555094216		0.600171812		3.634836077
F		0.008201086		-1.212948384		2.817070769
