12
-187.38518821
Al		1.283186602		0.0558775		2.429591529
Al		1.263079212		1.195975408		-0.12386294
Al		-0.328613581		0.833257236		-2.334671177
F		-1.657034072		-0.357897096		-2.219640893
F		2.066896376		-0.36198323		0.768103309
F		0.046276348		1.81180451		-3.784461926
F		-0.347234554		1.930329417		-0.757663883
F		2.588120401		2.420826693		-0.319629884
F		1.267936083		0.046578072		-1.611462153
F		0.438394843		1.537312155		1.62894791
F		2.555261074		0.600243991		3.634992481
F		0.008016667		-1.213131959		2.817126918
