12
-187.38518821
Al		1.283194757		0.055979438		2.429382048
Al		1.262877671		1.196074414		-0.124462645
Al		-0.328753528		0.83322004		-2.334853855
F		-1.656835223		-0.35772061		-2.219654105
F		2.066951114		-0.362128337		0.768282306
F		0.046227721		1.811674252		-3.784266525
F		-0.3470608		1.930296119		-0.757506424
F		2.588123987		2.420824931		-0.319619214
F		1.268011828		0.04665908		-1.611252885
F		0.438351572		1.537281354		1.629178716
F		2.555427932		0.60031617		3.635148885
F		0.007832248		-1.213315534		2.817183067
