12
-187.38518821
Al		1.283227377		0.05638719		2.428544124
Al		1.262071507		1.196470438		-0.126861465
Al		-0.329313316		0.833071256		-2.335584567
F		-1.656039827		-0.357014666		-2.219706953
F		2.067170066		-0.362708765		0.768998294
F		0.046033213		1.81115322		-3.783484921
F		-0.346365784		1.930162927		-0.756876588
F		2.588138331		2.420817883		-0.319576534
F		1.268314808		0.046983112		-1.610415813
F		0.438178488		1.53715815		1.63010194
F		2.556095364		0.600604886		3.635774501
F		0.007094572		-1.214049834		2.817407663
