12
-187.38518821
Al		1.283243687		0.056591066		2.428125162
Al		1.261668425		1.19666845		-0.128060875
Al		-0.32959321		0.832996864		-2.335949923
F		-1.655642129		-0.356661694		-2.219733377
F		2.067279542		-0.362998979		0.769356288
F		0.045935959		1.810892704		-3.783094119
F		-0.346018276		1.930096331		-0.75656167
F		2.588145503		2.420814359		-0.319555194
F		1.268466298		0.047145128		-1.609997277
F		0.438091946		1.537096548		1.630563552
F		2.55642908		0.600749244		3.636087309
F		0.006725734		-1.214416984		2.817519961
