12
-187.38518821
Al		1.283259997		0.056794942		2.4277062
Al		1.261265343		1.196866462		-0.129260285
Al		-0.329873104		0.832922472		-2.336315279
F		-1.655244431		-0.356308722		-2.219759801
F		2.067389018		-0.363289193		0.769714282
F		0.045838705		1.810632188		-3.782703317
F		-0.345670768		1.930029735		-0.756246752
F		2.588152675		2.420810835		-0.319533854
F		1.268617788		0.047307144		-1.609578741
F		0.438005404		1.537034946		1.631025164
F		2.556762796		0.600893602		3.636400117
F		0.006356896		-1.214784134		2.817632259
