12
-187.38518821
Al		1.283308927		0.05740657		2.426449314
Al		1.260056097		1.197460498		-0.132858515
Al		-0.330712786		0.832699296		-2.337411347
F		-1.654051337		-0.355249806		-2.219839073
F		2.067717446		-0.364159835		0.770788264
F		0.045546943		1.80985064		-3.781530911
F		-0.344628244		1.929829947		-0.755301998
F		2.588174191		2.420800263		-0.319469834
F		1.269072258		0.047793192		-1.608323133
F		0.437745778		1.53685014		1.63241
F		2.557763944		0.601326676		3.637338541
F		0.005250382		-1.215885584		2.817969153
