12
-187.38518821
Al		1.283333392		0.057712384		2.425820871
Al		1.259451474		1.197757516		-0.13465763
Al		-0.331132627		0.832587708		-2.337959381
F		-1.65345479		-0.354720348		-2.219878709
F		2.06788166		-0.364595156		0.771325255
F		0.045401062		1.809459866		-3.780944708
F		-0.344106982		1.929730053		-0.754829621
F		2.588184949		2.420794977		-0.319437824
F		1.269299493		0.048036216		-1.607695329
F		0.437615965		1.536757737		1.633102418
F		2.558264518		0.601543213		3.637807753
F		0.004697125		-1.216436309		2.8181376
