12
-187.38518821
Al		1.283349702		0.05791626		2.425401909
Al		1.259048392		1.197955528		-0.13585704
Al		-0.331412521		0.832513316		-2.338324737
F		-1.653057092		-0.354367376		-2.219905133
F		2.067991136		-0.36488537		0.771683249
F		0.045303808		1.80919935		-3.780553906
F		-0.343759474		1.929663457		-0.754514703
F		2.588192121		2.420791453		-0.319416484
F		1.269450983		0.048198232		-1.607276793
F		0.437529423		1.536696135		1.63356403
F		2.558598234		0.601687571		3.638120561
F		0.004328287		-1.216803459		2.818249898
