12
-187.38518821
Al		1.283357857		0.058018198		2.425192428
Al		1.258846851		1.198054534		-0.136456745
Al		-0.331552468		0.83247612		-2.338507415
F		-1.652858243		-0.35419089		-2.219918345
F		2.068045874		-0.365030477		0.771862246
F		0.045255181		1.809069092		-3.780358505
F		-0.34358572		1.929630159		-0.754357244
F		2.588195707		2.420789691		-0.319405814
F		1.269526728		0.04827924		-1.607067525
F		0.437486152		1.536665334		1.633794836
F		2.558765092		0.60175975		3.638276965
F		0.004143868		-1.216987034		2.818306047
