12
-187.38518821
Al		1.283414942		0.058731764		2.423726061
Al		1.257436064		1.198747576		-0.14065468
Al		-0.332532097		0.832215748		-2.339786161
F		-1.6514663		-0.352955488		-2.220010829
F		2.06842904		-0.366046226		0.773115225
F		0.044914792		1.808157286		-3.778990698
F		-0.342369442		1.929397073		-0.753255031
F		2.588220809		2.420777357		-0.319331124
F		1.270056943		0.048846296		-1.605602649
F		0.437183255		1.536449727		1.635410478
F		2.559933098		0.602265003		3.639371793
F		0.002852935		-1.218272059		2.81869909
