12
-187.38518821
Al		1.283431252		0.05893564		2.423307099
Al		1.257032982		1.198945588		-0.14185409
Al		-0.332811991		0.832141356		-2.340151517
F		-1.651068602		-0.352602516		-2.220037253
F		2.068538516		-0.36633644		0.773473219
F		0.044817538		1.80789677		-3.778599896
F		-0.342021934		1.929330477		-0.752940113
F		2.588227981		2.420773833		-0.319309784
F		1.270208433		0.049008312		-1.605184113
F		0.437096713		1.536388125		1.63587209
F		2.560266814		0.602409361		3.639684601
F		0.002484097		-1.218639209		2.818811388
