12
-187.38518821
Al		1.283439407		0.059037578		2.423097618
Al		1.256831441		1.199044594		-0.142453795
Al		-0.332951938		0.83210416		-2.340334195
F		-1.650869753		-0.35242603		-2.220050465
F		2.068593254		-0.366481547		0.773652216
F		0.044768911		1.807766512		-3.778404495
F		-0.34184818		1.929297179		-0.752782654
F		2.588231567		2.420772071		-0.319299114
F		1.270284178		0.04908932		-1.604974845
F		0.437053442		1.536357324		1.636102896
F		2.560433672		0.60248154		3.639841005
F		0.002299678		-1.218822784		2.818867537
