12
-187.38518821
Al		1.282623907		0.048843778		2.444045718
Al		1.276985541		1.189143994		-0.082483295
Al		-0.318957238		0.83582376		-2.322066395
F		-1.670754653		-0.37007463		-2.218729265
F		2.063119454		-0.351970847		0.755752516
F		0.049631611		1.820792312		-3.797944595
F		-0.35922358		1.932626979		-0.768528554
F		2.587872967		2.420948271		-0.320366114
F		1.262709678		0.04098852		-1.625901645
F		0.441380542		1.539437424		1.613022296
F		2.543747872		0.59526364		3.624200605
F		0.020741578		-1.200465284		2.813252637
