12
-187.38518821
Al		1.282542357		0.047824398		2.446140528
Al		1.279000951		1.188153934		-0.076486245
Al		-0.317557768		0.83619572		-2.320239615
F		-1.672743143		-0.37183949		-2.218597145
F		2.062572074		-0.350519777		0.753962546
F		0.050117881		1.822094892		-3.799898605
F		-0.36096112		1.932959959		-0.770103144
F		2.587837107		2.420965891		-0.320472814
F		1.261952228		0.04017844		-1.627994325
F		0.441813252		1.539745434		1.610714236
F		2.542079292		0.59454185		3.622636565
F		0.022585768		-1.198629534		2.812691147
