12
-187.38518821
Al		1.282517892		0.047518584		2.446768971
Al		1.279605574		1.187856916		-0.07468713
Al		-0.317137927		0.836307308		-2.319691581
F		-1.67333969		-0.372368948		-2.218557509
F		2.06240786		-0.350084456		0.753425555
F		0.050263762		1.822485666		-3.800484808
F		-0.361482382		1.933059853		-0.770575521
F		2.587826349		2.420971177		-0.320504824
F		1.261724993		0.039935416		-1.628622129
F		0.441943065		1.539837837		1.610021818
F		2.541578718		0.594325313		3.622167353
F		0.023139025		-1.198078809		2.8125227
