12
-187.38518821
Al		1.282501582		0.047314708		2.447187933
Al		1.280008656		1.187658904		-0.07348772
Al		-0.316858033		0.8363817		-2.319326225
F		-1.673737388		-0.37272192		-2.218531085
F		2.062298384		-0.349794242		0.753067561
F		0.050361016		1.822746182		-3.80087561
F		-0.36182989		1.933126449		-0.770890439
F		2.587819177		2.420974701		-0.320526164
F		1.261573503		0.0397734		-1.629040665
F		0.442029607		1.539899439		1.609560206
F		2.541245002		0.594180955		3.621854545
F		0.023507863		-1.197711659		2.812410402
