12
-187.38518821
Al		1.282485272		0.047110832		2.447606895
Al		1.280411738		1.187460892		-0.07228831
Al		-0.316578139		0.836456092		-2.318960869
F		-1.674135086		-0.373074892		-2.218504661
F		2.062188908		-0.349504028		0.752709567
F		0.05045827		1.823006698		-3.801266412
F		-0.362177398		1.933193045		-0.771205357
F		2.587812005		2.420978225		-0.320547504
F		1.261422013		0.039611384		-1.629459201
F		0.442116149		1.539961041		1.609098594
F		2.540911286		0.594036597		3.621541737
F		0.023876701		-1.197344509		2.812298104
