12
-187.38518821
Al		1.282460807		0.046805018		2.448235338
Al		1.281016361		1.187163874		-0.070489195
Al		-0.316158298		0.83656768		-2.318412835
F		-1.674731633		-0.37360435		-2.218465025
F		2.062024694		-0.349068707		0.752172576
F		0.050604151		1.823397472		-3.801852615
F		-0.36269866		1.933292939		-0.771677734
F		2.587801247		2.420983511		-0.320579514
F		1.261194778		0.03936836		-1.630087005
F		0.442245962		1.540053444		1.608406176
F		2.540410712		0.59382006		3.621072525
F		0.024429958		-1.196793784		2.812129657
