12
-187.38518821
Al		1.282411877		0.04619339		2.449492224
Al		1.282225607		1.186569838		-0.066890965
Al		-0.315318616		0.836790856		-2.317316767
F		-1.675924727		-0.374663266		-2.218385753
F		2.061696266		-0.348198065		0.751098594
F		0.050895913		1.82417902		-3.803025021
F		-0.363741184		1.933492727		-0.772622488
F		2.587779731		2.420994083		-0.320643534
F		1.260740308		0.038882312		-1.631342613
F		0.442505588		1.54023825		1.60702134
F		2.539409564		0.593386986		3.620134101
F		0.025536472		-1.195692334		2.811792763
