12
-187.38518821
Al		1.282403722		0.046091452		2.449701705
Al		1.282427148		1.186470832		-0.06629126
Al		-0.315178669		0.836828052		-2.317134089
F		-1.676123576		-0.374839752		-2.218372541
F		2.061641528		-0.348052958		0.750919597
F		0.05094454		1.824309278		-3.803220422
F		-0.363914938		1.933526025		-0.772779947
F		2.587776145		2.420995845		-0.320654204
F		1.260664563		0.038801304		-1.631551881
F		0.442548859		1.540269051		1.606790534
F		2.539242706		0.593314807		3.619977697
F		0.025720891		-1.195508759		2.811736614
