12
-187.38518821
Al		1.282395567		0.045989514		2.449911186
Al		1.282628689		1.186371826		-0.065691555
Al		-0.315038722		0.836865248		-2.316951411
F		-1.676322425		-0.375016238		-2.218359329
F		2.06158679		-0.347907851		0.7507406
F		0.050993167		1.824439536		-3.803415823
F		-0.364088692		1.933559323		-0.772937406
F		2.587772559		2.420997607		-0.320664874
F		1.260588818		0.038720296		-1.631761149
F		0.44259213		1.540299852		1.606559728
F		2.539075848		0.593242628		3.619821293
F		0.02590531		-1.195325184		2.811680465
