12
-187.38518821
Al		1.282387412		0.045887576		2.450120667
Al		1.28283023		1.18627282		-0.06509185
Al		-0.314898775		0.836902444		-2.316768733
F		-1.676521274		-0.375192724		-2.218346117
F		2.061532052		-0.347762744		0.750561603
F		0.051041794		1.824569794		-3.803611224
F		-0.364262446		1.933592621		-0.773094865
F		2.587768973		2.420999369		-0.320675544
F		1.260513073		0.038639288		-1.631970417
F		0.442635401		1.540330653		1.606328922
F		2.53890899		0.593170449		3.619664889
F		0.026089729		-1.195141609		2.811624316
