12
-187.38518821
Al		1.282379257		0.045785638		2.450330148
Al		1.283031771		1.186173814		-0.064492145
Al		-0.314758828		0.83693964		-2.316586055
F		-1.676720123		-0.37536921		-2.218332905
F		2.061477314		-0.347617637		0.750382606
F		0.051090421		1.824700052		-3.803806625
F		-0.3644362		1.933625919		-0.773252324
F		2.587765387		2.421001131		-0.320686214
F		1.260437328		0.03855828		-1.632179685
F		0.442678672		1.540361454		1.606098116
F		2.538742132		0.59309827		3.619508485
F		0.026274148		-1.194958034		2.811568167
