12
-187.38518821
Al		1.282346637		0.045377886		2.451168072
Al		1.283837935		1.18577779		-0.062093325
Al		-0.31419904		0.837088424		-2.315855343
F		-1.677515519		-0.376075154		-2.218280057
F		2.061258362		-0.347037209		0.749666618
F		0.051284929		1.825221084		-3.804588229
F		-0.365131216		1.933759111		-0.77388216
F		2.587751043		2.421008179		-0.320728894
F		1.260134348		0.038234248		-1.633016757
F		0.442851756		1.540484658		1.605174892
F		2.5380747		0.592809554		3.618882869
F		0.027011824		-1.194223734		2.811343571
