12
-187.38518821
Al		1.282330327		0.04517401		2.451587034
Al		1.284241017		1.185579778		-0.060893915
Al		-0.313919146		0.837162816		-2.315489987
F		-1.677913217		-0.376428126		-2.218253633
F		2.061148886		-0.346746995		0.749308624
F		0.051382183		1.8254816		-3.804979031
F		-0.365478724		1.933825707		-0.774197078
F		2.587743871		2.421011703		-0.320750234
F		1.259982858		0.038072232		-1.633435293
F		0.442938298		1.54054626		1.60471328
F		2.537740984		0.592665196		3.618570061
F		0.027380662		-1.193856584		2.811231273
