12
-187.38518821
Al		1.282305862		0.044868196		2.452215477
Al		1.28484564		1.18528276		-0.0590948
Al		-0.313499305		0.837274404		-2.314941953
F		-1.678509764		-0.376957584		-2.218213997
F		2.060984672		-0.346311674		0.748771633
F		0.051528064		1.825872374		-3.805565234
F		-0.365999986		1.933925601		-0.774669455
F		2.587733113		2.421016989		-0.320782244
F		1.259755623		0.037829208		-1.634063097
F		0.443068111		1.540638663		1.604020862
F		2.53724041		0.592448659		3.618100849
F		0.027933919		-1.193305859		2.811062826
