12
-187.38518821
Al		1.282224312		0.043848816		2.454310287
Al		1.28686105		1.1842927		-0.05309775
Al		-0.312099835		0.837646364		-2.313115173
F		-1.680498254		-0.378722444		-2.218081877
F		2.060437292		-0.344860604		0.746981663
F		0.052014334		1.827174954		-3.807519244
F		-0.367737526		1.934258581		-0.776244045
F		2.587697253		2.421034609		-0.320888944
F		1.258998173		0.037019128		-1.636155777
F		0.443500821		1.540946673		1.601712802
F		2.53557183		0.591726869		3.616536809
F		0.029778109		-1.191470109		2.810501336
