12
-187.38518821
Al		1.282175382		0.043237188		2.455567173
Al		1.288070296		1.183698664		-0.04949952
Al		-0.311260153		0.83786954		-2.312019105
F		-1.681691348		-0.37978136		-2.218002605
F		2.060108864		-0.343989962		0.745907681
F		0.052306096		1.827956502		-3.80869165
F		-0.36878005		1.934458369		-0.777188799
F		2.587675737		2.421045181		-0.320952964
F		1.258543703		0.03653308		-1.637411385
F		0.443760447		1.541131479		1.600327966
F		2.534570682		0.591293795		3.615598385
F		0.030884623		-1.190368659		2.810164442
