12
-187.38518821
Al		1.282150917		0.042931374		2.456195616
Al		1.288674919		1.183401646		-0.047700405
Al		-0.310840312		0.837981128		-2.311471071
F		-1.682287895		-0.380310818		-2.217962969
F		2.05994465		-0.343554641		0.74537069
F		0.052451977		1.828347276		-3.809277853
F		-0.369301312		1.934558263		-0.777661176
F		2.587664979		2.421050467		-0.320984974
F		1.258316468		0.036290056		-1.638039189
F		0.44389026		1.541223882		1.599635548
F		2.534070108		0.591077258		3.615129173
F		0.03143788		-1.189817934		2.809995995
