12
-187.38518821
Al		1.282574977		0.04823215		2.445302604
Al		1.278194787		1.188549958		-0.078885065
Al		-0.318117556		0.836046936		-2.320970327
F		-1.671947747		-0.371133546		-2.218649993
F		2.062791026		-0.351100205		0.754678534
F		0.049923373		1.82157386		-3.799117001
F		-0.360266104		1.932826767		-0.769473308
F		2.587851451		2.420958843		-0.320430134
F		1.262255208		0.040502472		-1.627157253
F		0.441640168		1.53962223		1.61163746
F		2.542746724		0.594830566		3.623262181
F		0.021848092		-1.199363834		2.812915743
