12
-187.38518821
Al		1.282036747		0.041504242		2.45912835
Al		1.291496493		1.182015562		-0.039304535
Al		-0.308881054		0.838501872		-2.308913579
F		-1.685071781		-0.382781622		-2.217778001
F		2.059178318		-0.341523143		0.742864732
F		0.053132755		1.830170888		-3.812013467
F		-0.371733868		1.935024435		-0.779865602
F		2.587614775		2.421075135		-0.321134354
F		1.257256038		0.035155944		-1.640968941
F		0.444496054		1.541655096		1.596404264
F		2.531734096		0.590066752		3.612939517
F		0.034019746		-1.187247884		2.809209909
