12
-187.38518821
Al		1.282028592		0.041402304		2.459337831
Al		1.291698034		1.181916556		-0.03870483
Al		-0.308741107		0.838539068		-2.308730901
F		-1.68527063		-0.382958108		-2.217764789
F		2.05912358		-0.341378036		0.742685735
F		0.053181382		1.830301146		-3.812208868
F		-0.371907622		1.935057733		-0.780023061
F		2.587611189		2.421076897		-0.321145024
F		1.257180293		0.035074936		-1.641178209
F		0.444539325		1.541685897		1.596173458
F		2.531567238		0.589994573		3.612783113
F		0.034204165		-1.187064309		2.80915376
