12
-187.38518821
Al		1.282020437		0.041300366		2.459547312
Al		1.291899575		1.18181755		-0.038105125
Al		-0.30860116		0.838576264		-2.308548223
F		-1.685469479		-0.383134594		-2.217751577
F		2.059068842		-0.341232929		0.742506738
F		0.053230009		1.830431404		-3.812404269
F		-0.372081376		1.935091031		-0.78018052
F		2.587607603		2.421078659		-0.321155694
F		1.257104548		0.034993928		-1.641387477
F		0.444582596		1.541716698		1.595942652
F		2.53140038		0.589922394		3.612626709
F		0.034388584		-1.186880734		2.809097611
