12
-187.38518821
Al		1.281955197		0.040484862		2.46122316
Al		1.293511903		1.181025502		-0.033307485
Al		-0.307481584		0.838873832		-2.307086799
F		-1.687060271		-0.384546482		-2.217645881
F		2.058630938		-0.340072073		0.741074762
F		0.053619025		1.831473468		-3.813967477
F		-0.373471408		1.935357415		-0.781440192
F		2.587578915		2.421092755		-0.321241054
F		1.256498588		0.034345864		-1.643061621
F		0.444928764		1.541963106		1.594096204
F		2.530065516		0.589344962		3.611375477
F		0.035863936		-1.185412134		2.808648419
