12
-187.38518821
Al		1.281922577		0.04007711		2.462061084
Al		1.294318067		1.180629478		-0.030908665
Al		-0.306921796		0.839022616		-2.306356087
F		-1.687855667		-0.385252426		-2.217593033
F		2.058411986		-0.339491645		0.740358774
F		0.053813533		1.8319945		-3.814749081
F		-0.374166424		1.935490607		-0.782070028
F		2.587564571		2.421099803		-0.321283734
F		1.256195608		0.034021832		-1.643898693
F		0.445101848		1.54208631		1.59317298
F		2.529398084		0.589056246		3.610749861
F		0.036601612		-1.184677834		2.808423823
