12
-187.38518821
Al		1.281873647		0.039465482		2.46331797
Al		1.295527313		1.180035442		-0.027310435
Al		-0.306082114		0.839245792		-2.305260019
F		-1.689048761		-0.386311342		-2.217513761
F		2.058083558		-0.338621003		0.739284792
F		0.054105295		1.832776048		-3.815921487
F		-0.375208948		1.935690395		-0.783014782
F		2.587543055		2.421110375		-0.321347754
F		1.255741138		0.033535784		-1.645154301
F		0.445361474		1.542271116		1.591788144
F		2.528396936		0.588623172		3.609811437
F		0.037708126		-1.183576384		2.808086929
