12
-187.38518821
Al		1.281857337		0.039261606		2.463736932
Al		1.295930395		1.17983743		-0.026111025
Al		-0.30580222		0.839320184		-2.304894663
F		-1.689446459		-0.386664314		-2.217487337
F		2.057974082		-0.338330789		0.738926798
F		0.054202549		1.833036564		-3.816312289
F		-0.375556456		1.935756991		-0.7833297
F		2.587535883		2.421113899		-0.321369094
F		1.255589648		0.033373768		-1.645572837
F		0.445448016		1.542332718		1.591326532
F		2.52806322		0.588478814		3.609498629
F		0.038076964		-1.183209234		2.807974631
