12
-187.38518821
Al		1.281849182		0.039159668		2.463946413
Al		1.296131936		1.179738424		-0.02551132
Al		-0.305662273		0.83935738		-2.304711985
F		-1.689645308		-0.3868408		-2.217474125
F		2.057919344		-0.338185682		0.738747801
F		0.054251176		1.833166822		-3.81650769
F		-0.37573021		1.935790289		-0.783487159
F		2.587532297		2.421115661		-0.321379764
F		1.255513903		0.03329276		-1.645782105
F		0.445491287		1.542363519		1.591095726
F		2.527896362		0.588406635		3.609342225
F		0.038261383		-1.183025659		2.807918482
