12
-187.38518821
Al		1.281841027		0.03905773		2.464155894
Al		1.296333477		1.179639418		-0.024911615
Al		-0.305522326		0.839394576		-2.304529307
F		-1.689844157		-0.387017286		-2.217460913
F		2.057864606		-0.338040575		0.738568804
F		0.054299803		1.83329708		-3.816703091
F		-0.375903964		1.935823587		-0.783644618
F		2.587528711		2.421117423		-0.321390434
F		1.255438158		0.033211752		-1.645991373
F		0.445534558		1.54239432		1.59086492
F		2.527729504		0.588334456		3.609185821
F		0.038445802		-1.182842084		2.807862333
