12
Properties=species:S:1:pos:R:3:forces:R:3 energy=-186.35743458 pbc="F F F"
Al    -0.053620157    1.7244175959999999    2.053909021    0.259534    0.435721    -0.412604
Al    2.550136596    2.592025025    1.8435235749999999    -0.088604    -0.099912    -0.075257
Al    1.309465158    2.536351581    -0.603072653    0.007686    0.033758    -0.076358
F    1.1926498520000002    2.800096519    3.243537832    -0.032918    0.011241    0.054266
F    -1.322994947    3.095226543    1.905770595    -0.201723    0.188058    -0.095592
F    -0.62714046    0.127797282    2.87681626    -0.13411    -0.597749    0.446063
F    1.714287369    0.879389085    1.552673234    0.081512    -0.002392    -0.064685
F    3.116138342    2.123903372    -0.114488954    0.068957    -0.008939    -0.034653
F    1.150943714    3.116575452    -2.328046804    -0.000746    -0.0019    0.027311
F    1.303107368    3.815209587    0.8762172650000001    -0.01102    0.048415    0.039514
F    4.172930966    3.0737531110000003    2.465025668    0.087541    0.032298    0.051239
F    -0.059298399999999994    1.491932868    0.03310550499999999    -0.03611    -0.038597    0.140755
