12
Properties=species:S:1:pos:R:3:forces:R:3 energy=-186.35088379 pbc="F F F"
Al    -1.658930961    2.5430511200000003    -0.9394718910000001    0.00804    0.002251    -0.003628
Al    -0.547337355    0.137354906    -2.475749274    0.025729    0.003316    0.023017
Al    -2.230448376    -0.458829318    -0.7033165370000001    -0.037607    -0.005532    -0.012081
F    -0.702757341    3.504360536    0.239318743    0.001278    0.001449    0.001519
F    -2.9676414469999997    3.340871193    -1.9893813919999999    -0.005049    0.001652    -0.003057
F    -1.42718608    -1.627059127    -2.062732461    -3.2e-05    -0.002191    -0.000494
F    -2.515143362    1.2773606830000002    0.142905062    -0.001647    -0.00147    0.004617
F    -3.294483263    -1.534070732    0.30933105299999997    0.003401    0.000395    0.002347
F    0.600698498    -0.24829754099999995    -3.819209904    0.002182    -0.001457    -0.0082
F    -0.309931025    2.006159614    -2.1947818310000002    -0.000844    -0.000273    -0.000657
F    -2.459028957    0.627437951    -2.3496510280000003    -0.014848    -0.001742    0.010123
F    -0.316838868    -0.00168576099999998    -0.486480208    0.019397    0.003603    -0.013504
