12
-186.35103317
Al		-1.695118849		2.560484882		-1.236275819
Al		-0.531011627		0.002085647		-2.347819592
Al		-2.200361927		-0.3406022		-0.516009664
F		-0.757638609		3.685680768		-0.16157438
F		-3.017408659		3.176250662		-2.31541423
F		-1.377667764		-1.675077632		-1.720253091
F		-2.528234336		1.447371317		0.0567338
F		-3.247295558		-1.302848741		0.602419687
F		0.621364921		-0.516184216		-3.642702479
F		-0.338946264		1.896479169		-2.347618788
F		-2.455435436		0.474261612		-2.303589083
F		-0.303235159		0.158677344		-0.400647325
