12
-186.35103317
Al		-1.693111089		2.56089339		-1.238478951
Al		-0.530885175		0.002662899		-2.347961496
Al		-2.200132451		-0.341107032		-0.516258324
F		-0.757713565		3.685665516		-0.161492128
F		-3.017482655		3.176235606		-2.315333034
F		-1.377808228		-1.675106212		-1.720098959
F		-2.52905232		1.446538665		0.05800006
F		-3.24730015		-1.302763721		0.602426059
F		0.621374605		-0.5162682		-3.642714435
F		-0.340245308		1.896881077		-2.346562012
F		-2.455632992		0.474221416		-2.303372303
F		-0.303452903		0.15863304		-0.400408393
