12
-186.35103317
Al		-1.699636309		2.559565739		-1.231318772
Al		-0.531296144		0.00078683		-2.347500308
Al		-2.200878248		-0.339466328		-0.515450179
F		-0.757469958		3.685715085		-0.161759447
F		-3.017242168		3.176284538		-2.315596921
F		-1.37735172		-1.675013327		-1.720599888
F		-2.526393872		1.449244784		0.053884715
F		-3.247285226		-1.303040036		0.60240535
F		0.621343132		-0.515995252		-3.642675578
F		-0.336023415		1.895574876		-2.349996534
F		-2.454990935		0.474352053		-2.304076838
F		-0.302745235		0.158777028		-0.401184922
