12
-186.35103317
Al		-1.689597509		2.561608279		-1.242334432
Al		-0.530663884		0.00367309		-2.348209828
Al		-2.199730868		-0.341990488		-0.516693479
F		-0.757844738		3.685638825		-0.161348187
F		-3.017612148		3.176209258		-2.315190941
F		-1.37805404		-1.675156227		-1.719829228
F		-2.530483792		1.445081524		0.060216015
F		-3.247308186		-1.302614936		0.60243721
F		0.621391552		-0.516415172		-3.642735358
F		-0.342518635		1.897584416		-2.344712654
F		-2.455978715		0.474151073		-2.302992938
F		-0.303833955		0.158555508		-0.399990262
