12
-186.35103317
Al		-1.683072289		2.56293593		-1.249494611
Al		-0.530252915		0.005549159		-2.348671016
Al		-2.198985071		-0.343631192		-0.517501624
F		-0.758088345		3.685589256		-0.161080868
F		-3.017852635		3.176160326		-2.314927054
F		-1.378510548		-1.675249112		-1.719328299
F		-2.53314224		1.442375405		0.06433136
F		-3.24732311		-1.302338621		0.602457919
F		0.621423025		-0.51668812		-3.642774215
F		-0.346740528		1.898890617		-2.341278132
F		-2.456620772		0.474020436		-2.302288403
F		-0.304541623		0.15841152		-0.399213733
