12
-186.35103317
Al		-1.681064529		2.563344438		-1.251697743
Al		-0.530126463		0.006126411		-2.34881292
Al		-2.198755595		-0.344136024		-0.517750284
F		-0.758163301		3.685574004		-0.160998616
F		-3.017926631		3.17614527		-2.314845858
F		-1.378651012		-1.675277692		-1.719174167
F		-2.533960224		1.441542753		0.06559762
F		-3.247327702		-1.302253601		0.602464291
F		0.621432709		-0.516772104		-3.642786171
F		-0.348039572		1.899292525		-2.340221356
F		-2.456818328		0.47398024		-2.302071623
F		-0.304759367		0.158367216		-0.398974801
