12
-186.35103317
Al		-1.698632429		2.559769993		-1.232420338
Al		-0.531232918		0.001075456		-2.34757126
Al		-2.20076351		-0.339718744		-0.515574509
F		-0.757507436		3.685707459		-0.161718321
F		-3.017279166		3.17627701		-2.315556323
F		-1.377421952		-1.675027617		-1.720522822
F		-2.526802864		1.448828458		0.054517845
F		-3.247287522		-1.302997526		0.602408536
F		0.621347974		-0.516037244		-3.642681556
F		-0.336672937		1.89577583		-2.349468146
F		-2.455089713		0.474331955		-2.303968448
F		-0.302854107		0.158754876		-0.401065456
