12
-186.35103317
Al		-1.679056769		2.563752946		-1.253900875
Al		-0.530000011		0.006703663		-2.348954824
Al		-2.198526119		-0.344640856		-0.517998944
F		-0.758238257		3.685558752		-0.160916364
F		-3.018000627		3.176130214		-2.314764662
F		-1.378791476		-1.675306272		-1.719020035
F		-2.534778208		1.440710101		0.06686388
F		-3.247332294		-1.302168581		0.602470663
F		0.621442393		-0.516856088		-3.642798127
F		-0.349338616		1.899694433		-2.33916458
F		-2.457015884		0.473940044		-2.301854843
F		-0.304977111		0.158322912		-0.398735869
