12
-186.35103317
Al		-1.677550949		2.564059327		-1.255553224
Al		-0.529905172		0.007136602		-2.349061252
Al		-2.198354012		-0.34501948		-0.518185439
F		-0.758294474		3.685547313		-0.160854675
F		-3.018056124		3.176118922		-2.314703765
F		-1.378896824		-1.675327707		-1.718904436
F		-2.535391696		1.440085612		0.067813575
F		-3.247335738		-1.302104816		0.602475442
F		0.621449656		-0.516919076		-3.642807094
F		-0.350312899		1.899995864		-2.338371998
F		-2.457164051		0.473909897		-2.301692258
F		-0.305140419		0.158289684		-0.39855667
