12
-186.35103317
Al		-1.677049009		2.564161454		-1.256104007
Al		-0.529873559		0.007280915		-2.349096728
Al		-2.198296643		-0.345145688		-0.518247604
F		-0.758313213		3.6855435		-0.160834112
F		-3.018074623		3.176115158		-2.314683466
F		-1.37893194		-1.675334852		-1.718865903
F		-2.535596192		1.439877449		0.06813014
F		-3.247336886		-1.302083561		0.602477035
F		0.621452077		-0.516940072		-3.642810083
F		-0.35063766		1.900096341		-2.338107804
F		-2.45721344		0.473899848		-2.301638063
F		-0.305194855		0.158278608		-0.398496937
