12
-186.35103317
Al		-1.698130489		2.55987212		-1.232971121
Al		-0.531201305		0.001219769		-2.347606736
Al		-2.200706141		-0.339844952		-0.515636674
F		-0.757526175		3.685703646		-0.161697758
F		-3.017297665		3.176273246		-2.315536024
F		-1.377457068		-1.675034762		-1.720484289
F		-2.52700736		1.448620295		0.05483441
F		-3.24728867		-1.302976271		0.602410129
F		0.621350395		-0.51605824		-3.642684545
F		-0.336997698		1.895876307		-2.349203952
F		-2.455139102		0.474321906		-2.303914253
F		-0.302908543		0.1587438		-0.401005723
