12
-186.35103317
Al		-1.674539309		2.564672089		-1.258857922
Al		-0.529715494		0.00800248		-2.349274108
Al		-2.198009798		-0.345776728		-0.518558429
F		-0.758406908		3.685524435		-0.160731297
F		-3.018167118		3.176096338		-2.314581971
F		-1.37910752		-1.675370577		-1.718673238
F		-2.536618672		1.438836634		0.069712965
F		-3.247342626		-1.301977286		0.602485
F		0.621464182		-0.517045052		-3.642825028
F		-0.352261465		1.900598726		-2.336786834
F		-2.457460385		0.473849603		-2.301367088
F		-0.305467035		0.158223228		-0.398198272
