12
-186.35103317
Al		-1.672029609		2.565182724		-1.261611837
Al		-0.529557429		0.008724045		-2.349451488
Al		-2.197722953		-0.346407768		-0.518869254
F		-0.758500603		3.68550537		-0.160628482
F		-3.018259613		3.176077518		-2.314480476
F		-1.3792831		-1.675406302		-1.718480573
F		-2.537641152		1.437795819		0.07129579
F		-3.247348366		-1.301871011		0.602492965
F		0.621476287		-0.517150032		-3.642839973
F		-0.35388527		1.901101111		-2.335465864
F		-2.45770733		0.473799358		-2.301096113
F		-0.305739215		0.158167848		-0.397899607
