12
-186.35103317
Al		-1.670523789		2.565489105		-1.263264186
Al		-0.52946259		0.009156984		-2.349557916
Al		-2.197550846		-0.346786392		-0.519055749
F		-0.75855682		3.685493931		-0.160566793
F		-3.01831511		3.176066226		-2.314419579
F		-1.379388448		-1.675427737		-1.718364974
F		-2.53825464		1.43717133		0.072245485
F		-3.24735181		-1.301807246		0.602497744
F		0.62148355		-0.51721302		-3.64284894
F		-0.354859553		1.901402542		-2.334673282
F		-2.457855497		0.473769211		-2.300933528
F		-0.305902523		0.15813462		-0.397720408
