12
-186.35103317
Al		-1.664500509		2.566714629		-1.269873582
Al		-0.529083234		0.01088874		-2.349983628
Al		-2.196862418		-0.348300888		-0.519801729
F		-0.758781688		3.685448175		-0.160320037
F		-3.018537098		3.176021058		-2.314175991
F		-1.37980984		-1.675513477		-1.717902578
F		-2.540708592		1.434673374		0.076044265
F		-3.247365586		-1.301552186		0.60251686
F		0.621512602		-0.517464972		-3.642884808
F		-0.358756685		1.902608266		-2.331502954
F		-2.458448165		0.473648623		-2.300283188
F		-0.306555755		0.158001708		-0.397003612
