12
-186.35103317
Al		-1.661990809		2.567225264		-1.272627497
Al		-0.528925169		0.011610305		-2.350161008
Al		-2.196575573		-0.348931928		-0.520112554
F		-0.758875383		3.68542911		-0.160217222
F		-3.018629593		3.176002238		-2.314074496
F		-1.37998542		-1.675549202		-1.717709913
F		-2.541731072		1.433632559		0.07762709
F		-3.247371326		-1.301445911		0.602524825
F		0.621524707		-0.517569952		-3.642899753
F		-0.36038049		1.903110651		-2.330181984
F		-2.45869511		0.473598378		-2.300012213
F		-0.306827935		0.157946328		-0.396704947
