12
-186.35103317
Al		-1.661488869		2.567327391		-1.27317828
Al		-0.528893556		0.011754618		-2.350196484
Al		-2.196518204		-0.349058136		-0.520174719
F		-0.758894122		3.685425297		-0.160196659
F		-3.018648092		3.175998474		-2.314054197
F		-1.380020536		-1.675556347		-1.71767138
F		-2.541935568		1.433424396		0.077943655
F		-3.247372474		-1.301424656		0.602526418
F		0.621527128		-0.517590948		-3.642902742
F		-0.360705251		1.903211128		-2.32991779
F		-2.458744499		0.473588329		-2.299958018
F		-0.306882371		0.157935252		-0.396645214
