12
-186.35103317
Al		-1.696624669		2.560178501		-1.23462347
Al		-0.531106466		0.001652708		-2.347713164
Al		-2.200534034		-0.340223576		-0.515823169
F		-0.757582392		3.685692207		-0.161636069
F		-3.017353162		3.176261954		-2.315475127
F		-1.377562416		-1.675056197		-1.72036869
F		-2.527620848		1.447995806		0.055784105
F		-3.247292114		-1.302912506		0.602414908
F		0.621357658		-0.516121228		-3.642693512
F		-0.337971981		1.896177738		-2.34841137
F		-2.455287269		0.474291759		-2.303751668
F		-0.303071851		0.158710572		-0.400826524
