12
-186.35103317
Al		-1.657975289		2.56804228		-1.277033761
Al		-0.528672265		0.012764809		-2.350444816
Al		-2.196116621		-0.349941592		-0.520609874
F		-0.759025295		3.685398606		-0.160052718
F		-3.018777585		3.175972126		-2.313912104
F		-1.380266348		-1.675606362		-1.717401649
F		-2.54336704		1.431967255		0.08015961
F		-3.24738051		-1.301275871		0.602537569
F		0.621544075		-0.51773792		-3.642923665
F		-0.362978578		1.903914467		-2.328068432
F		-2.459090222		0.473517986		-2.299578653
F		-0.307263423		0.15785772		-0.396227083
