12
-186.35103317
Al		-1.656971409		2.568246534		-1.278135327
Al		-0.528609039		0.013053435		-2.350515768
Al		-2.196001883		-0.350194008		-0.520734204
F		-0.759062773		3.68539098		-0.160011592
F		-3.018814583		3.175964598		-2.313871506
F		-1.38033658		-1.675620652		-1.717324583
F		-2.543776032		1.431550929		0.08079274
F		-3.247382806		-1.301233361		0.602540755
F		0.621548917		-0.517779912		-3.642929643
F		-0.3636281		1.904115421		-2.327540044
F		-2.459189		0.473497888		-2.299470263
F		-0.307372295		0.157835568		-0.396107617
