12
-186.35103317
Al		-1.655465589		2.568552915		-1.279787676
Al		-0.5285142		0.013486374		-2.350622196
Al		-2.195829776		-0.350572632		-0.520920699
F		-0.75911899		3.685379541		-0.159949903
F		-3.01887008		3.175953306		-2.313810609
F		-1.380441928		-1.675642087		-1.717208984
F		-2.54438952		1.43092644		0.081742435
F		-3.24738625		-1.301169596		0.602545534
F		0.62155618		-0.5178429		-3.64293861
F		-0.364602383		1.904416852		-2.326747462
F		-2.459337167		0.473467741		-2.299307678
F		-0.307535603		0.15780234		-0.395928418
