12
-186.35103317
Al		-1.653959769		2.568859296		-1.281440025
Al		-0.528419361		0.013919313		-2.350728624
Al		-2.195657669		-0.350951256		-0.521107194
F		-0.759175207		3.685368102		-0.159888214
F		-3.018925577		3.175942014		-2.313749712
F		-1.380547276		-1.675663522		-1.717093385
F		-2.545003008		1.430301951		0.08269213
F		-3.247389694		-1.301105831		0.602550313
F		0.621563443		-0.517905888		-3.642947577
F		-0.365576666		1.904718283		-2.32595488
F		-2.459485334		0.473437594		-2.299145093
F		-0.307698911		0.157769112		-0.395749219
