12
-186.35103317
Al		-1.706663469		2.558135961		-1.22360781
Al		-0.531738726		-0.001233552		-2.347003644
Al		-2.201681414		-0.337699416		-0.514579869
F		-0.757207612		3.685768467		-0.162047329
F		-3.016983182		3.176337234		-2.315881107
F		-1.376860096		-1.674913297		-1.72113935
F		-2.523530928		1.452159066		0.049452805
F		-3.247269154		-1.303337606		0.602383048
F		0.621309238		-0.515701308		-3.642633732
F		-0.331476761		1.894168198		-2.35369525
F		-2.454299489		0.474492739		-2.304835568
F		-0.301983131		0.158932092		-0.402021184
