12
-186.35103317
Al		-1.707165409		2.558033834		-1.223057027
Al		-0.531770339		-0.001377865		-2.346968168
Al		-2.201738783		-0.337573208		-0.514517704
F		-0.757188873		3.68577228		-0.162067892
F		-3.016964683		3.176340998		-2.315901406
F		-1.37682498		-1.674906152		-1.721177883
F		-2.523326432		1.452367229		0.04913624
F		-3.247268006		-1.303358861		0.602381455
F		0.621306817		-0.515680312		-3.642630743
F		-0.331152		1.894067721		-2.353959444
F		-2.4542501		0.474502788		-2.304889763
F		-0.301928695		0.158943168		-0.402080917
