12
-186.35103317
Al		-1.709675109		2.557523199		-1.220303112
Al		-0.531928404		-0.00209943		-2.346790788
Al		-2.202025628		-0.336942168		-0.514206879
F		-0.757095178		3.685791345		-0.162170707
F		-3.016872188		3.176359818		-2.316002901
F		-1.3766494		-1.674870427		-1.721370548
F		-2.522303952		1.453408044		0.047553415
F		-3.247262266		-1.303465136		0.60237349
F		0.621294712		-0.515575332		-3.642615798
F		-0.329528195		1.893565336		-2.355280414
F		-2.454003155		0.474553033		-2.305160738
F		-0.301656515		0.158998548		-0.402379582
