12
-186.35103317
Al		-1.712184809		2.557012564		-1.217549197
Al		-0.532086469		-0.002820995		-2.346613408
Al		-2.202312473		-0.336311128		-0.513896054
F		-0.757001483		3.68581041		-0.162273522
F		-3.016779693		3.176378638		-2.316104396
F		-1.37647382		-1.674834702		-1.721563213
F		-2.521281472		1.454448859		0.04597059
F		-3.247256526		-1.303571411		0.602365525
F		0.621282607		-0.515470352		-3.642600853
F		-0.32790439		1.893062951		-2.356601384
F		-2.45375621		0.474603278		-2.305431713
F		-0.301384335		0.159053928		-0.402678247
