12
-186.35103317
Al		-1.715196449		2.556399802		-1.214244499
Al		-0.532276147		-0.003686873		-2.346400552
Al		-2.202656687		-0.33555388		-0.513523064
F		-0.756889049		3.685833288		-0.1623969
F		-3.016668699		3.176401222		-2.31622619
F		-1.376263124		-1.674791832		-1.721794411
F		-2.520054496		1.455697837		0.0440712
F		-3.247249638		-1.303698941		0.602355967
F		0.621268081		-0.515344376		-3.642582919
F		-0.325955824		1.892460089		-2.358186548
F		-2.453459876		0.474663572		-2.305756883
F		-0.301057719		0.159120384		-0.403036645
