12
-186.35103317
Al		-1.716702269		2.556093421		-1.21259215
Al		-0.532370986		-0.004119812		-2.346294124
Al		-2.202828794		-0.335175256		-0.513336569
F		-0.756832832		3.685844727		-0.162458589
F		-3.016613202		3.176412514		-2.316287087
F		-1.376157776		-1.674770397		-1.72191001
F		-2.519441008		1.456322326		0.043121505
F		-3.247246194		-1.303762706		0.602351188
F		0.621260818		-0.515281388		-3.642573952
F		-0.324981541		1.892158658		-2.35897913
F		-2.453311709		0.474693719		-2.305919468
F		-0.300894411		0.159153612		-0.403215844
