12
-186.35103317
Al		-1.717706149		2.555889167		-1.211490584
Al		-0.532434212		-0.004408438		-2.346223172
Al		-2.202943532		-0.33492284		-0.513212239
F		-0.756795354		3.685852353		-0.162499715
F		-3.016576204		3.176420042		-2.316327685
F		-1.376087544		-1.674756107		-1.721987076
F		-2.519032016		1.456738652		0.042488375
F		-3.247243898		-1.303805216		0.602348002
F		0.621255976		-0.515239396		-3.642567974
F		-0.324332019		1.891957704		-2.359507518
F		-2.453212931		0.474713817		-2.306027858
F		-0.300785539		0.159175764		-0.40333531
