12
-186.35103317
Al		-1.720215849		2.555378532		-1.208736669
Al		-0.532592277		-0.005130003		-2.346045792
Al		-2.203230377		-0.3342918		-0.512901414
F		-0.756701659		3.685871418		-0.16260253
F		-3.016483709		3.176438862		-2.31642918
F		-1.375911964		-1.674720382		-1.722179741
F		-2.518009536		1.457779467		0.04090555
F		-3.247238158		-1.303911491		0.602340037
F		0.621243871		-0.515134416		-3.642553029
F		-0.322708214		1.891455319		-2.360828488
F		-2.452965986		0.474764062		-2.306298833
F		-0.300513359		0.159231144		-0.403633975
