12
-186.35103317
Al		-1.721721669		2.555072151		-1.20708432
Al		-0.532687116		-0.005562942		-2.345939364
Al		-2.203402484		-0.333913176		-0.512714919
F		-0.756645442		3.685882857		-0.162664219
F		-3.016428212		3.176450154		-2.316490077
F		-1.375806616		-1.674698947		-1.72229534
F		-2.517396048		1.458403956		0.039955855
F		-3.247234714		-1.303975256		0.602335258
F		0.621236608		-0.515071428		-3.642544062
F		-0.321733931		1.891153888		-2.36162107
F		-2.452817819		0.474794209		-2.306461418
F		-0.300350051		0.159264372		-0.403813174
