12
-186.35103317
Al		-1.722223609		2.554970024		-1.206533537
Al		-0.532718729		-0.005707255		-2.345903888
Al		-2.203459853		-0.333786968		-0.512652754
F		-0.756626703		3.68588667		-0.162684782
F		-3.016409713		3.176453918		-2.316510376
F		-1.3757715		-1.674691802		-1.722333873
F		-2.517191552		1.458612119		0.03963929
F		-3.247233566		-1.303996511		0.602333665
F		0.621234187		-0.515050432		-3.642541073
F		-0.32140917		1.891053411		-2.361885264
F		-2.45276843		0.474804258		-2.306515613
F		-0.300295615		0.159275448		-0.403872907
