12
-186.35103317
Al		-1.724733309		2.554459389		-1.203779622
Al		-0.532876794		-0.00642882		-2.345726508
Al		-2.203746698		-0.333155928		-0.512341929
F		-0.756533008		3.685905735		-0.162787597
F		-3.016317218		3.176472738		-2.316611871
F		-1.37559592		-1.674656077		-1.722526538
F		-2.516169072		1.459652934		0.038056465
F		-3.247227826		-1.304102786		0.6023257
F		0.621222082		-0.514945452		-3.642526128
F		-0.319785365		1.890551026		-2.363206234
F		-2.452521485		0.474854503		-2.306786588
F		-0.300023435		0.159330828		-0.404171572
