12
-186.35103317
Al		-1.726239129		2.554153008		-1.202127273
Al		-0.532971633		-0.006861759		-2.34562008
Al		-2.203918805		-0.332777304		-0.512155434
F		-0.756476791		3.685917174		-0.162849286
F		-3.016261721		3.17648403		-2.316672768
F		-1.375490572		-1.674634642		-1.722642137
F		-2.515555584		1.460277423		0.03710677
F		-3.247224382		-1.304166551		0.602320921
F		0.621214819		-0.514882464		-3.642517161
F		-0.318811082		1.890249595		-2.363998816
F		-2.452373318		0.47488465		-2.306949173
F		-0.299860127		0.159364056		-0.404350771
