12
-186.35103317
Al		-1.726741069		2.554050881		-1.20157649
Al		-0.533003246		-0.007006072		-2.345584604
Al		-2.203976174		-0.332651096		-0.512093269
F		-0.756458052		3.685920987		-0.162869849
F		-3.016243222		3.176487794		-2.316693067
F		-1.375455456		-1.674627497		-1.72268067
F		-2.515351088		1.460485586		0.036790205
F		-3.247223234		-1.304187806		0.602319328
F		0.621212398		-0.514861468		-3.642514172
F		-0.318486321		1.890149118		-2.36426301
F		-2.452323929		0.474894699		-2.307003368
F		-0.299805691		0.159375132		-0.404410504
