12
-186.35103317
Al		-1.729250769		2.553540246		-1.198822575
Al		-0.533161311		-0.007727637		-2.345407224
Al		-2.204263019		-0.332020056		-0.511782444
F		-0.756364357		3.685940052		-0.162972664
F		-3.016150727		3.176506614		-2.316794562
F		-1.375279876		-1.674591772		-1.722873335
F		-2.514328608		1.461526401		0.03520738
F		-3.247217494		-1.304294081		0.602311363
F		0.621200293		-0.514756488		-3.642499227
F		-0.316862516		1.889646733		-2.36558398
F		-2.452076984		0.474944944		-2.307274343
F		-0.299533511		0.159430512		-0.404709169
