12
-186.35103317
Al		-1.703651829		2.558748723		-1.226912508
Al		-0.531549048		-0.000367674		-2.3472165
Al		-2.2013372		-0.338456664		-0.514952859
F		-0.757320046		3.685745589		-0.161923951
F		-3.017094176		3.17631465		-2.315759313
F		-1.377070792		-1.674956167		-1.720908152
F		-2.524757904		1.450910088		0.051352195
F		-3.247276042		-1.303210076		0.602392606
F		0.621323764		-0.515827284		-3.642651666
F		-0.333425327		1.89477106		-2.352110086
F		-2.454595823		0.474432445		-2.304510398
F		-0.302309747		0.158865636		-0.401662786
