12
-186.35103317
Al		-1.730756589		2.553233865		-1.197170226
Al		-0.53325615		-0.008160576		-2.345300796
Al		-2.204435126		-0.331641432		-0.511595949
F		-0.75630814		3.685951491		-0.163034353
F		-3.01609523		3.176517906		-2.316855459
F		-1.375174528		-1.674570337		-1.722988934
F		-2.51371512		1.46215089		0.034257685
F		-3.24721405		-1.304357846		0.602306584
F		0.62119303		-0.5146935		-3.64249026
F		-0.315888233		1.889345302		-2.366376562
F		-2.451928817		0.474975091		-2.307436928
F		-0.299370203		0.15946374		-0.404888368
