12
-186.35103317
Al		-1.731760469		2.553029611		-1.19606866
Al		-0.533319376		-0.008449202		-2.345229844
Al		-2.204549864		-0.331389016		-0.511471619
F		-0.756270662		3.685959117		-0.163075479
F		-3.016058232		3.176525434		-2.316896057
F		-1.375104296		-1.674556047		-1.723066
F		-2.513306128		1.462567216		0.033624555
F		-3.247211754		-1.304400356		0.602303398
F		0.621188188		-0.514651508		-3.642484282
F		-0.315238711		1.889144348		-2.36690495
F		-2.451830039		0.474995189		-2.307545318
F		-0.299261331		0.159485892		-0.405007834
