12
-186.35103317
Al		-1.732764349		2.552825357		-1.194967094
Al		-0.533382602		-0.008737828		-2.345158892
Al		-2.204664602		-0.3311366		-0.511347289
F		-0.756233184		3.685966743		-0.163116605
F		-3.016021234		3.176532962		-2.316936655
F		-1.375034064		-1.674541757		-1.723143066
F		-2.512897136		1.462983542		0.032991425
F		-3.247209458		-1.304442866		0.602300212
F		0.621183346		-0.514609516		-3.642478304
F		-0.314589189		1.888943394		-2.367433338
F		-2.451731261		0.475015287		-2.307653708
F		-0.299152459		0.159508044		-0.4051273
