12
-186.35103317
Al		-1.733266289		2.55272323		-1.194416311
Al		-0.533414215		-0.008882141		-2.345123416
Al		-2.204721971		-0.331010392		-0.511285124
F		-0.756214445		3.685970556		-0.163137168
F		-3.016002735		3.176536726		-2.316956954
F		-1.374998948		-1.674534612		-1.723181599
F		-2.51269264		1.463191705		0.03267486
F		-3.24720831		-1.304464121		0.602298619
F		0.621180925		-0.51458852		-3.642475315
F		-0.314264428		1.888842917		-2.367697532
F		-2.451681872		0.475025336		-2.307707903
F		-0.299098023		0.15951912		-0.405187033
