12
-186.35103317
Al		-1.735274049		2.552314722		-1.192213179
Al		-0.533540667		-0.009459393		-2.344981512
Al		-2.204951447		-0.33050556		-0.511036464
F		-0.756139489		3.685985808		-0.16321942
F		-3.015928739		3.176551782		-2.31703815
F		-1.374858484		-1.674506032		-1.723335731
F		-2.511874656		1.464024357		0.0314086
F		-3.247203718		-1.304549141		0.602292247
F		0.621171241		-0.514504536		-3.642463359
F		-0.312965384		1.888441009		-2.368754308
F		-2.451484316		0.475065532		-2.307924683
F		-0.298880279		0.159563424		-0.405425965
