12
-186.35103317
Al		-1.736779869		2.552008341		-1.19056083
Al		-0.533635506		-0.009892332		-2.344875084
Al		-2.205123554		-0.330126936		-0.510849969
F		-0.756083272		3.685997247		-0.163281109
F		-3.015873242		3.176563074		-2.317099047
F		-1.374753136		-1.674484597		-1.72345133
F		-2.511261168		1.464648846		0.030458905
F		-3.247200274		-1.304612906		0.602287468
F		0.621163978		-0.514441548		-3.642454392
F		-0.311991101		1.888139578		-2.36954689
F		-2.451336149		0.475095679		-2.308087268
F		-0.298716971		0.159596652		-0.405605164
