12
-186.35103317
Al		-1.737783749		2.551804087		-1.189459264
Al		-0.533698732		-0.010180958		-2.344804132
Al		-2.205238292		-0.32987452		-0.510725639
F		-0.756045794		3.686004873		-0.163322235
F		-3.015836244		3.176570602		-2.317139645
F		-1.374682904		-1.674470307		-1.723528396
F		-2.510852176		1.465065172		0.029825775
F		-3.247197978		-1.304655416		0.602284282
F		0.621159136		-0.514399556		-3.642448414
F		-0.311341579		1.887938624		-2.370075278
F		-2.451237371		0.475115777		-2.308195658
F		-0.298608099		0.159618804		-0.40572463
