12
-186.35103317
Al		-1.738285689		2.55170196		-1.188908481
Al		-0.533730345		-0.010325271		-2.344768656
Al		-2.205295661		-0.329748312		-0.510663474
F		-0.756027055		3.686008686		-0.163342798
F		-3.015817745		3.176574366		-2.317159944
F		-1.374647788		-1.674463162		-1.723566929
F		-2.51064768		1.465273335		0.02950921
F		-3.24719683		-1.304676671		0.602282689
F		0.621156715		-0.51437856		-3.642445425
F		-0.311016818		1.887838147		-2.370339472
F		-2.451187982		0.475125826		-2.308249853
F		-0.298553663		0.15962988		-0.405784363
