12
-186.35103317
Al		-1.740293449		2.551293452		-1.186705349
Al		-0.533856797		-0.010902523		-2.344626752
Al		-2.205525137		-0.32924348		-0.510414814
F		-0.755952099		3.686023938		-0.16342505
F		-3.015743749		3.176589422		-2.31724114
F		-1.374507324		-1.674434582		-1.723721061
F		-2.509829696		1.466105987		0.02824295
F		-3.247192238		-1.304761691		0.602276317
F		0.621147031		-0.514294576		-3.642433469
F		-0.309717774		1.887436239		-2.371396248
F		-2.450990426		0.475166022		-2.308466633
F		-0.298335919		0.159674184		-0.406023295
