12
-186.35103317
Al		-1.743305089		2.55068069		-1.183400651
Al		-0.534046475		-0.011768401		-2.344413896
Al		-2.205869351		-0.328486232		-0.510041824
F		-0.755839665		3.686046816		-0.163548428
F		-3.015632755		3.176612006		-2.317362934
F		-1.374296628		-1.674391712		-1.723952259
F		-2.50860272		1.467354965		0.02634356
F		-3.24718535		-1.304889221		0.602266759
F		0.621132505		-0.5141686		-3.642415535
F		-0.307769208		1.886833377		-2.372981412
F		-2.450694092		0.475226316		-2.308791803
F		-0.298009303		0.15974064		-0.406381693
