12
-186.35103317
Al		-1.745814789		2.550170055		-1.180646736
Al		-0.53420454		-0.012489966		-2.344236516
Al		-2.206156196		-0.327855192		-0.509730999
F		-0.75574597		3.686065881		-0.163651243
F		-3.01554026		3.176630826		-2.317464429
F		-1.374121048		-1.674355987		-1.724144924
F		-2.50758024		1.46839578		0.024760735
F		-3.24717961		-1.304995496		0.602258794
F		0.6211204		-0.51406362		-3.64240059
F		-0.306145403		1.886330992		-2.374302382
F		-2.450447147		0.475276561		-2.309062778
F		-0.297737123		0.15979602		-0.406680358
