12
-186.35103317
Al		-1.747822549		2.549761547		-1.178443604
Al		-0.534330992		-0.013067218		-2.344094612
Al		-2.206385672		-0.32735036		-0.509482339
F		-0.755671014		3.686081133		-0.163733495
F		-3.015466264		3.176645882		-2.317545625
F		-1.373980584		-1.674327407		-1.724299056
F		-2.506762256		1.469228432		0.023494475
F		-3.247175018		-1.305080516		0.602252422
F		0.621110716		-0.513979636		-3.642388634
F		-0.304846359		1.885929084		-2.375359158
F		-2.450249591		0.475316757		-2.309279558
F		-0.297519379		0.159840324		-0.40691929
