12
-186.35103317
Al		-1.750332249		2.549250912		-1.175689689
Al		-0.534489057		-0.013788783		-2.343917232
Al		-2.206672517		-0.32671932		-0.509171514
F		-0.755577319		3.686100198		-0.16383631
F		-3.015373769		3.176664702		-2.31764712
F		-1.373805004		-1.674291682		-1.724491721
F		-2.505739776		1.470269247		0.02191165
F		-3.247169278		-1.305186791		0.602244457
F		0.621098611		-0.513874656		-3.642373689
F		-0.303222554		1.885426699		-2.376680128
F		-2.450002646		0.475367002		-2.309550533
F		-0.297247199		0.159895704		-0.407217955
