12
Properties=species:S:1:pos:R:3:forces:R:3 energy=-186.03651935 pbc="F F F"
Al    -0.194177657    1.865657596    2.2816585209999998    0.851384    1.389818    -1.793708
Al    2.4698850959999996    2.478630025    1.7235165749999999    -0.118667    -0.165168    -0.191697
Al    1.470725658    2.497514581    -0.7701606529999999    0.043501    0.025089    -0.075554
F    1.069647352    3.130796519    2.943644832    -0.110885    0.017584    0.218873
F    -1.5831889469999998    2.952702543    1.738326095    -0.727529    0.66    -0.443039
F    -0.60260046    0.487109782    3.64260426    -0.412416    -1.945539    2.042295
F    1.471184369    0.855658585    1.727244234    0.240213    -0.116461    -0.267999
F    3.0501693420000002    1.7179348719999998    -0.07312545399999999    0.220214    -0.025769    -0.162368
F    1.5534857140000002    2.940347952    -2.5464238040000002    -0.018659    0.014775    -0.039986
F    1.7346828680000002    3.895716587    0.5822132649999999    -0.045059    0.188643    0.140002
F    4.088091966    2.771677611    2.532348168    0.190732    0.074155    0.127527
F    -0.06988839999999999    1.785036368    0.034495504999999996    -0.112829    -0.117127    0.445653
