      12
SCF Done            -186.03651935
Al           -0.076887657         1.612123596         2.154056521
Al            2.497861096         2.548745025         1.730897575
Al            1.350122658         2.699848581        -0.683867653
F             1.041212352         2.944422519         2.959440832
F            -1.578377947         2.666233543         1.773082095
F            -0.410357460         0.183898782         3.457584260
F             1.733181369         0.817762585         1.664814234
F             3.043995342         2.008338872        -0.162975454
F             1.155369714         3.230177952        -2.403199804
F             1.590117868         3.970296587         0.736171265
F             4.083542966         3.000304611         2.496108168
F             0.023510600         1.693006368         0.100733505
