12
Properties=species:S:1:pos:R:3:forces:R:3 energy=-185.10207364 pbc="F F F"
Al    0.154844272    -2.2588044110000003    -1.8747701609999998    0.405962    1.295127    0.338039
Al    2.00549353    -0.8516050559999999    -0.8570777239999999    0.301292    0.470422    0.193768
Al    -0.256688406    0.592060703    -1.7328997830000001    0.105773    0.541245    0.111792
F    3.4530924880000002    -0.201601416    -0.11347992300000001    0.721985    0.13497    0.348848
F    -0.19781887399999998    -3.945199793    -2.233747036    0.362954    1.385092    0.328662
F    2.070869738    -1.606634576    -1.964183989    -1.569472    -1.03568    -0.205862
F    1.641726495    0.629086239    -2.22506002    0.344677    0.473156    -0.850371
F    -1.664551722    1.8585468310000002    -2.2351361109999996    -0.394829    0.42462    -0.132769
F    -1.166626186    -1.658090052    -0.8864288690000001    0.92404    -1.449517    -0.51494
F    -0.016736874    -1.368084209    -3.378478881    0.342674    -1.59614    0.745
F    0.609032296    0.368636898    0.013005698    -0.456289    0.271149    0.885488
F    1.281242734    -1.8057814100000003    -0.252898473    -1.088767    -0.914444    -1.247654
