12
Properties=species:S:1:pos:R:3:forces:R:3 energy=-185.26097008 pbc="F F F"
Al    -0.416359438    1.17383346    -1.607262736    0.054978    1.115432    -0.078965
Al    -0.759973214    0.925763253    1.440626636    -0.008442    -0.147882    0.04369
Al    -2.8771114190000002    0.082495089    -1.683454642    1.978554    -3.305154    1.124439
F    -3.3779209609999996    0.721110908    -3.462740308    -1.001086    1.947253    -1.972051
F    -1.0671276570000001    -0.729543401    -2.107313845    0.743088    -0.471378    0.264814
F    -2.124761887    1.866160503    -2.1894537830000003    -0.675312    -0.086894    -0.318697
F    -2.1307533249999997    0.8945895389999999    0.10362542400000002    -0.055912    0.310444    -0.008272
F    0.44198382700000005    1.293742543    -0.012662211000000034    0.155671    -0.271632    0.168222
F    -0.056934874999999996    2.697309397    1.801536547    -0.098227    0.012946    -0.02102
F    0.670458615    -0.26004875800000005    1.9915656449999999    0.057637    0.034567    0.007627
F    -4.391006992    0.46290667    -0.5568134650000001    -1.372531    1.084424    1.009239
F    0.543434827    1.158091037    -3.166486429    0.22158    -0.222125    -0.219026
