12
-185.77729729
Al		0.275693472		-2.327999129		-1.827497371
Al		2.033393992		-0.541276926		-0.80461678
Al		-0.334038567		0.309398081		-1.804521416
F		3.62350883		-0.180428279		-0.028107148
F		-0.166629548		-4.032105835		-2.230007326
F		2.098043958		-1.807401124		-2.290033024
F		1.529603851		0.655381762		-2.264666596
F		-1.481830375		1.652656138		-2.178521095
F		-1.137513135		-1.273696039		-0.991845797
F		-0.12300001		-1.017781592		-3.22033491
F		0.503763495		0.398386335		-0.041529932
F		1.079199647		-2.074645244		-0.064860886
