12
-185.77729729
Al		0.275552472		-2.328034685		-1.827191791
Al		2.034514396		-0.54099435		-0.807044932
Al		-0.335017971		0.309151073		-1.802398844
F		3.62488751		-0.180080567		-0.03109504
F		-0.166803056		-4.032149599		-2.229631306
F		2.100599682		-1.811165824		-2.288232652
F		1.529502403		0.656095402		-2.264477872
F		-1.483035559		1.65235219		-2.175909223
F		-1.141867719		-1.274772451		-0.995192057
F		-0.11773369		-1.016475236		-3.21896457
F		0.503750211		0.397643763		-0.041469992
F		1.075846919		-2.071081556		-0.06493399
