12
-185.77729729
Al		0.275810972		-2.327969499		-1.827752021
Al		2.032460322		-0.541512406		-0.80259332
Al		-0.333222397		0.309603921		-1.806290226
F		3.62235993		-0.180718039		-0.025617238
F		-0.166484958		-4.032069365		-2.230320676
F		2.095914188		-1.804263874		-2.291533334
F		1.529688391		0.654787062		-2.264823866
F		-1.480826055		1.652909428		-2.180697655
F		-1.133884315		-1.272799029		-0.989057247
F		-0.12738861		-1.018870222		-3.22147686
F		0.503774565		0.399005145		-0.041579882
F		1.081993587		-2.077614984		-0.064799966
