12
-185.77729729
Al		0.275869722		-2.327954684		-1.827879346
Al		2.031993487		-0.541630146		-0.80158159
Al		-0.332814312		0.309706841		-1.807174631
F		3.62178548		-0.180862919		-0.024372283
F		-0.166412663		-4.03205113		-2.230477351
F		2.094849303		-1.802695249		-2.292283489
F		1.529730661		0.654489712		-2.264902501
F		-1.480323895		1.653036073		-2.181785935
F		-1.132069905		-1.272350524		-0.987662972
F		-0.12958291		-1.019414537		-3.222047835
F		0.5037801		0.39931455		-0.041604857
F		1.083390557		-2.079099854		-0.064769506
