12
-185.77729729
Al		0.275881472		-2.327951721		-1.827904811
Al		2.03190012		-0.541653694		-0.801379244
Al		-0.332732695		0.309727425		-1.807351512
F		3.62167059		-0.180891895		-0.024123292
F		-0.166398204		-4.032047483		-2.230508686
F		2.094636326		-1.802381524		-2.29243352
F		1.529739115		0.654430242		-2.264918228
F		-1.480223463		1.653061402		-2.182003591
F		-1.131707023		-1.272260823		-0.987384117
F		-0.13002177		-1.0195234		-3.22216203
F		0.503781207		0.399376431		-0.041609852
F		1.083669951		-2.079396828		-0.064763414
