12
-185.77729729
Al		0.275928472		-2.327939869		-1.828006671
Al		2.031526652		-0.541747886		-0.80056986
Al		-0.332406227		0.309809761		-1.808059036
F		3.62121103		-0.181007799		-0.023127328
F		-0.166340368		-4.032032895		-2.230634026
F		2.093784418		-1.801126624		-2.293033644
F		1.529772931		0.654192362		-2.264981136
F		-1.479821735		1.653162718		-2.182874215
F		-1.130255495		-1.271902019		-0.986268697
F		-0.13177721		-1.019958852		-3.22261881
F		0.503785635		0.399623955		-0.041629832
F		1.084787527		-2.080584724		-0.064739046
