12
-185.77729729
Al		0.275940222		-2.327936906		-1.828032136
Al		2.031433285		-0.541771434		-0.800367514
Al		-0.33232461		0.309830345		-1.808235917
F		3.62109614		-0.181036775		-0.022878337
F		-0.166325909		-4.032029248		-2.230665361
F		2.093571441		-1.800812899		-2.293183675
F		1.529781385		0.654132892		-2.264996863
F		-1.479721303		1.653188047		-2.183091871
F		-1.129892613		-1.271812318		-0.985989842
F		-0.13221607		-1.020067715		-3.222733005
F		0.503786742		0.399685836		-0.041634827
F		1.085066921		-2.080881698		-0.064732954
