12
-185.77729729
Al		0.275963722		-2.32793098		-1.828083066
Al		2.031246551		-0.54181853		-0.799962822
Al		-0.332161376		0.309871513		-1.808589679
F		3.62086636		-0.181094727		-0.022380355
F		-0.166296991		-4.032021954		-2.230728031
F		2.093145487		-1.800185449		-2.293483737
F		1.529798293		0.654013952		-2.265028317
F		-1.479520439		1.653238705		-2.183527183
F		-1.129166849		-1.271632916		-0.985432132
F		-0.13309379		-1.020285441		-3.222961395
F		0.503788956		0.399809598		-0.041644817
F		1.085625709		-2.081475646		-0.06472077
