12
-185.77729729
Al		0.276022472		-2.327916165		-1.828210391
Al		2.030779716		-0.54193627		-0.798951092
Al		-0.331753291		0.309974433		-1.809474084
F		3.62029191		-0.181239607		-0.0211354
F		-0.166224696		-4.032003719		-2.230884706
F		2.092080602		-1.798616824		-2.294233892
F		1.529840563		0.653716602		-2.265106952
F		-1.479018279		1.65336535		-2.184615463
F		-1.127352439		-1.271184411		-0.984037857
F		-0.13528809		-1.020829756		-3.22353237
F		0.503794491		0.400119003		-0.041669792
F		1.087022679		-2.082960516		-0.06469031
