12
-185.77729729
Al		0.276034222		-2.327913202		-1.828235856
Al		2.030686349		-0.541959818		-0.798748746
Al		-0.331671674		0.309995017		-1.809650965
F		3.62017702		-0.181268583		-0.020886409
F		-0.166210237		-4.032000072		-2.230916041
F		2.091867625		-1.798303099		-2.294383923
F		1.529849017		0.653657132		-2.265122679
F		-1.478917847		1.653390679		-2.184833119
F		-1.126989557		-1.27109471		-0.983759002
F		-0.13572695		-1.020938619		-3.223646565
F		0.503795598		0.400180884		-0.041674787
F		1.087302073		-2.08325749		-0.064684218
