12
-185.77729729
Al		0.276092972		-2.327898387		-1.828363181
Al		2.030219514		-0.542077558		-0.797737016
Al		-0.331263589		0.310097937		-1.81053537
F		3.61960257		-0.181413463		-0.019641454
F		-0.166137942		-4.031981837		-2.231072716
F		2.09080274		-1.796734474		-2.295134078
F		1.529891287		0.653359782		-2.265201314
F		-1.478415687		1.653517324		-2.185921399
F		-1.125175147		-1.270646205		-0.982364727
F		-0.13792125		-1.021482934		-3.22421754
F		0.503801133		0.400490289		-0.041699762
F		1.088699043		-2.08474236		-0.064653758
