12
-185.77729729
Al		0.276104722		-2.327895424		-1.828388646
Al		2.030126147		-0.542101106		-0.79753467
Al		-0.331181972		0.310118521		-1.810712251
F		3.61948768		-0.181442439		-0.019392463
F		-0.166123483		-4.03197819		-2.231104051
F		2.090589763		-1.796420749		-2.295284109
F		1.529899741		0.653300312		-2.265217041
F		-1.478315255		1.653542653		-2.186139055
F		-1.124812265		-1.270556504		-0.982085872
F		-0.13836011		-1.021591797		-3.224331735
F		0.50380224		0.40055217		-0.041704757
F		1.088978437		-2.085039334		-0.064647666
