12
-185.77729729
Al		0.276139972		-2.327886535		-1.828465041
Al		2.029846046		-0.54217175		-0.796927632
Al		-0.330937121		0.310180273		-1.811242894
F		3.61914301		-0.181529367		-0.01864549
F		-0.166080106		-4.031967249		-2.231198056
F		2.089950832		-1.795479574		-2.295734202
F		1.529925103		0.653121902		-2.265264222
F		-1.478013959		1.65361864		-2.186792023
F		-1.123723619		-1.270287401		-0.981249307
F		-0.13967669		-1.021918386		-3.22467432
F		0.503805561		0.400737813		-0.041719742
F		1.089816619		-2.085930256		-0.06462939
