12
-185.77729729
Al		0.276233972		-2.327862831		-1.828668761
Al		2.02909911		-0.542360134		-0.795308864
Al		-0.330284185		0.310344945		-1.812657942
F		3.61822389		-0.181761175		-0.016653562
F		-0.165964434		-4.031938073		-2.231448736
F		2.088247016		-1.792969774		-2.29693445
F		1.529992735		0.652646142		-2.265390038
F		-1.477210503		1.653821272		-2.188533271
F		-1.120820563		-1.269569793		-0.979018467
F		-0.14318757		-1.02278929		-3.22558788
F		0.503814417		0.401232861		-0.041759702
F		1.092051771		-2.088306048		-0.064580654
