12
-185.77729729
Al		0.276269222		-2.327853942		-1.828745156
Al		2.028819009		-0.542430778		-0.794701826
Al		-0.330039334		0.310406697		-1.813188585
F		3.61787922		-0.181848103		-0.015906589
F		-0.165921057		-4.031927132		-2.231542741
F		2.087608085		-1.792028599		-2.297384543
F		1.530018097		0.652467732		-2.265437219
F		-1.476909207		1.653897259		-2.189186239
F		-1.119731917		-1.26930069		-0.978181902
F		-0.14450415		-1.023115879		-3.225930465
F		0.503817738		0.401418504		-0.041774687
F		1.092889953		-2.08919697		-0.064562378
