12
-185.77729729
Al		0.276327972		-2.327839127		-1.828872481
Al		2.028352174		-0.542548518		-0.793690096
Al		-0.329631249		0.310509617		-1.81407299
F		3.61730477		-0.181992983		-0.014661634
F		-0.165848762		-4.031908897		-2.231699416
F		2.0865432		-1.790459974		-2.298134698
F		1.530060367		0.652170382		-2.265515854
F		-1.476407047		1.654023904		-2.190274519
F		-1.117917507		-1.268852185		-0.976787627
F		-0.14669845		-1.023660194		-3.22650144
F		0.503823273		0.401727909		-0.041799662
F		1.094286923		-2.09068184		-0.064531918
