12
-185.77729729
Al		0.276339722		-2.327836164		-1.828897946
Al		2.028258807		-0.542572066		-0.79348775
Al		-0.329549632		0.310530201		-1.814249871
F		3.61718988		-0.182021959		-0.014412643
F		-0.165834303		-4.03190525		-2.231730751
F		2.086330223		-1.790146249		-2.298284729
F		1.530068821		0.652110912		-2.265531581
F		-1.476306615		1.654049233		-2.190492175
F		-1.117554625		-1.268762484		-0.976508772
F		-0.14713731		-1.023769057		-3.226615635
F		0.50382438		0.40178979		-0.041804657
F		1.094566317		-2.090978814		-0.064525826
