12
-185.77729729
Al		0.276363222		-2.327830238		-1.828948876
Al		2.028072073		-0.542619162		-0.793083058
Al		-0.329386398		0.310571369		-1.814603633
F		3.6169601		-0.182079911		-0.013914661
F		-0.165805385		-4.031897956		-2.231793421
F		2.085904269		-1.789518799		-2.298584791
F		1.530085729		0.651991972		-2.265563035
F		-1.476105751		1.654099891		-2.190927487
F		-1.116828861		-1.268583082		-0.975951062
F		-0.14801503		-1.023986783		-3.226844025
F		0.503826594		0.401913552		-0.041814647
F		1.095125105		-2.091572762		-0.064513642
