12
-185.77729729
Al		0.276398472		-2.327821349		-1.829025271
Al		2.027791972		-0.542689806		-0.79247602
Al		-0.329141547		0.310633121		-1.815134276
F		3.61661543		-0.182166839		-0.013167688
F		-0.165762008		-4.031887015		-2.231887426
F		2.085265338		-1.788577624		-2.299034884
F		1.530111091		0.651813562		-2.265610216
F		-1.475804455		1.654175878		-2.191580455
F		-1.115740215		-1.268313979		-0.975114497
F		-0.14933161		-1.024313372		-3.22718661
F		0.503829915		0.402099195		-0.041829632
F		1.095963287		-2.092463684		-0.064495366
