12
-185.77729729
Al		0.276410222		-2.327818386		-1.829050736
Al		2.027698605		-0.542713354		-0.792273674
Al		-0.32905993		0.310653705		-1.815311157
F		3.61650054		-0.182195815		-0.012918697
F		-0.165747549		-4.031883368		-2.231918761
F		2.085052361		-1.788263899		-2.299184915
F		1.530119545		0.651754092		-2.265625943
F		-1.475704023		1.654201207		-2.191798111
F		-1.115377333		-1.268224278		-0.974835642
F		-0.14977047		-1.024422235		-3.227300805
F		0.503831022		0.402161076		-0.041834627
F		1.096242681		-2.092760658		-0.064489274
