12
-185.77729729
Al		0.276468972		-2.327803571		-1.829178061
Al		2.02723177		-0.542831094		-0.791261944
Al		-0.328651845		0.310756625		-1.816195562
F		3.61592609		-0.182340695		-0.011673742
F		-0.165675254		-4.031865133		-2.232075436
F		2.083987476		-1.786695274		-2.29993507
F		1.530161815		0.651456742		-2.265704578
F		-1.475201863		1.654327852		-2.192886391
F		-1.113562923		-1.267775773		-0.973441367
F		-0.15196477		-1.02496655		-3.22787178
F		0.503836557		0.402470481		-0.041859602
F		1.097639651		-2.094245528		-0.064458814
