12
-185.77729729
Al		0.276480722		-2.327800608		-1.829203526
Al		2.027138403		-0.542854642		-0.791059598
Al		-0.328570228		0.310777209		-1.816372443
F		3.6158112		-0.182369671		-0.011424751
F		-0.165660795		-4.031861486		-2.232106771
F		2.083774499		-1.786381549		-2.300085101
F		1.530170269		0.651397272		-2.265720305
F		-1.475101431		1.654353181		-2.193104047
F		-1.113200041		-1.267686072		-0.973162512
F		-0.15240363		-1.025075413		-3.227985975
F		0.503837664		0.402532362		-0.041864597
F		1.097919045		-2.094542502		-0.064452722
