12
-185.77729729
Al		0.276504222		-2.327794682		-1.829254456
Al		2.026951669		-0.542901738		-0.790654906
Al		-0.328406994		0.310818377		-1.816726205
F		3.61558142		-0.182427623		-0.010926769
F		-0.165631877		-4.031854192		-2.232169441
F		2.083348545		-1.785754099		-2.300385163
F		1.530187177		0.651278332		-2.265751759
F		-1.474900567		1.654403839		-2.193539359
F		-1.112474277		-1.26750667		-0.972604802
F		-0.15328135		-1.025293139		-3.228214365
F		0.503839878		0.402656124		-0.041874587
F		1.098477833		-2.09513645		-0.064440538
