12
-185.77729729
Al		0.276551222		-2.32778283		-1.829356316
Al		2.026578201		-0.54299593		-0.789845522
Al		-0.328080526		0.310900713		-1.817433729
F		3.61512186		-0.182543527		-0.009930805
F		-0.165574041		-4.031839604		-2.232294781
F		2.082496637		-1.784499199		-2.300985287
F		1.530220993		0.651040452		-2.265814667
F		-1.474498839		1.654505155		-2.194409983
F		-1.111022749		-1.267147866		-0.971489382
F		-0.15503679		-1.025728591		-3.228671145
F		0.503844306		0.402903648		-0.041894567
F		1.099595409		-2.096324346		-0.06441617
