12
-185.77729729
Al		0.276586472		-2.327773941		-1.829432711
Al		2.0262981		-0.543066574		-0.789238484
Al		-0.327835675		0.310962465		-1.817964372
F		3.61477719		-0.182630455		-0.009183832
F		-0.165530664		-4.031828663		-2.232388786
F		2.081857706		-1.783558024		-2.30143538
F		1.530246355		0.650862042		-2.265861848
F		-1.474197543		1.654581142		-2.195062951
F		-1.109934103		-1.266878763		-0.970652817
F		-0.15635337		-1.02605518		-3.22901373
F		0.503847627		0.403089291		-0.041909552
F		1.100433591		-2.097215268		-0.064397894
