12
-185.77729729
Al		0.276609972		-2.327768015		-1.829483641
Al		2.026111366		-0.54311367		-0.788833792
Al		-0.327672441		0.311003633		-1.818318134
F		3.61454741		-0.182688407		-0.00868585
F		-0.165501746		-4.031821369		-2.232451456
F		2.081431752		-1.782930574		-2.301735442
F		1.530263263		0.650743102		-2.265893302
F		-1.473996679		1.6546318		-2.195498263
F		-1.109208339		-1.266699361		-0.970095107
F		-0.15723109		-1.026272906		-3.22924212
F		0.503849841		0.403213053		-0.041919542
F		1.100992379		-2.097809216		-0.06438571
