12
-185.77729729
Al		0.276621722		-2.327765052		-1.829509106
Al		2.026017999		-0.543137218		-0.788631446
Al		-0.327590824		0.311024217		-1.818495015
F		3.61443252		-0.182717383		-0.008436859
F		-0.165487287		-4.031817722		-2.232482791
F		2.081218775		-1.782616849		-2.301885473
F		1.530271717		0.650683632		-2.265909029
F		-1.473896247		1.654657129		-2.195715919
F		-1.108845457		-1.26660966		-0.969816252
F		-0.15766995		-1.026381769		-3.229356315
F		0.503850948		0.403274934		-0.041924537
F		1.101271773		-2.09810619		-0.064379618
