12
-185.77729729
Al		0.276668722		-2.3277532		-1.829610966
Al		2.025644531		-0.54323141		-0.787822062
Al		-0.327264356		0.311106553		-1.819202539
F		3.61397296		-0.182833287		-0.007440895
F		-0.165429451		-4.031803134		-2.232608131
F		2.080366867		-1.781361949		-2.302485597
F		1.530305533		0.650445752		-2.265971937
F		-1.473494519		1.654758445		-2.196586543
F		-1.107393929		-1.266250856		-0.968700832
F		-0.15942539		-1.026817221		-3.229813095
F		0.503855376		0.403522458		-0.041944517
F		1.102389349		-2.099294086		-0.06435525
