12
-185.77729729
Al		0.276692222		-2.327747274		-1.829661896
Al		2.025457797		-0.543278506		-0.78741737
Al		-0.327101122		0.311147721		-1.819556301
F		3.61374318		-0.182891239		-0.006942913
F		-0.165400533		-4.03179584		-2.232670801
F		2.079940913		-1.780734499		-2.302785659
F		1.530322441		0.650326812		-2.266003391
F		-1.473293655		1.654809103		-2.197021855
F		-1.106668165		-1.266071454		-0.968143122
F		-0.16030311		-1.027034947		-3.230041485
F		0.50385759		0.40364622		-0.041954507
F		1.102948137		-2.099888034		-0.064343066
