12
-185.77729729
Al		0.275517222		-2.328043574		-1.827115396
Al		2.034794497		-0.540923706		-0.80765197
Al		-0.335262822		0.309089321		-1.801868201
F		3.62523218		-0.179993639		-0.031842013
F		-0.166846433		-4.03216054		-2.229537301
F		2.101238613		-1.812106999		-2.287782559
F		1.529477041		0.656273812		-2.264430691
F		-1.483336855		1.652276203		-2.175256255
F		-1.142956365		-1.275041554		-0.996028622
F		-0.11641711		-1.016148647		-3.218621985
F		0.50374689		0.39745812		-0.041455007
F		1.075008737		-2.070190634		-0.064952266
