12
-185.77729729
Al		0.275387972		-2.328076167		-1.826835281
Al		2.035821534		-0.540664678		-0.809877776
Al		-0.336160609		0.308862897		-1.79992251
F		3.62649597		-0.179674903		-0.034580914
F		-0.167005482		-4.032200657		-2.229192616
F		2.10358136		-1.815557974		-2.286132218
F		1.529384047		0.656927982		-2.264257694
F		-1.484441607		1.651997584		-2.172862039
F		-1.146948067		-1.276028265		-0.999096027
F		-0.11158965		-1.014951154		-3.21736584
F		0.503734713		0.396777429		-0.041400062
F		1.071935403		-2.06692392		-0.065019278
