12
-185.77729729
Al		0.275364472		-2.328082093		-1.826784351
Al		2.036008268		-0.540617582		-0.810282468
Al		-0.336323843		0.308821729		-1.799568748
F		3.62672575		-0.179616951		-0.035078896
F		-0.1670344		-4.032207951		-2.229129946
F		2.104007314		-1.816185424		-2.285832156
F		1.529367139		0.657046922		-2.26422624
F		-1.484642471		1.651946926		-2.172426727
F		-1.147673831		-1.276207667		-0.999653737
F		-0.11071193		-1.014733428		-3.21713745
F		0.503732499		0.396653667		-0.041390072
F		1.071376615		-2.066329972		-0.065031462
