12
-185.77729729
Al		0.275305722		-2.328096908		-1.826657026
Al		2.036475103		-0.540499842		-0.811294198
Al		-0.336731928		0.308718809		-1.798684343
F		3.6273002		-0.179472071		-0.036323851
F		-0.167106695		-4.032226186		-2.228973271
F		2.105072199		-1.817754049		-2.285082001
F		1.529324869		0.657344272		-2.264147605
F		-1.485144631		1.651820281		-2.171338447
F		-1.149488241		-1.276656172		-1.001048012
F		-0.10851763		-1.014189113		-3.216566475
F		0.503726964		0.396344262		-0.041365097
F		1.069979645		-2.064845102		-0.065061922
