12
-185.77729729
Al		0.275270472		-2.328105797		-1.826580631
Al		2.036755204		-0.540429198		-0.811901236
Al		-0.336976779		0.308657057		-1.7981537
F		3.62764487		-0.179385143		-0.037070824
F		-0.167150072		-4.032237127		-2.228879266
F		2.10571113		-1.818695224		-2.284631908
F		1.529299507		0.657522682		-2.264100424
F		-1.485445927		1.651744294		-2.170685479
F		-1.150576887		-1.276925275		-1.001884577
F		-0.10720105		-1.013862524		-3.21622389
F		0.503723643		0.396158619		-0.041350112
F		1.069141463		-2.06395418		-0.065080198
