12
-185.77729729
Al		0.275246972		-2.328111723		-1.826529701
Al		2.036941938		-0.540382102		-0.812305928
Al		-0.337140013		0.308615889		-1.797799938
F		3.62787465		-0.179327191		-0.037568806
F		-0.16717899		-4.032244421		-2.228816596
F		2.106137084		-1.819322674		-2.284331846
F		1.529282599		0.657641622		-2.26406897
F		-1.485646791		1.651693636		-2.170250167
F		-1.151302651		-1.277104677		-1.002442287
F		-0.10632333		-1.013644798		-3.2159955
F		0.503721429		0.396034857		-0.041340122
F		1.068582675		-2.063360232		-0.065092382
