12
-185.77729729
Al		0.275223472		-2.328117649		-1.826478771
Al		2.037128672		-0.540335006		-0.81271062
Al		-0.337303247		0.308574721		-1.797446176
F		3.62810443		-0.179269239		-0.038066788
F		-0.167207908		-4.032251715		-2.228753926
F		2.106563038		-1.819950124		-2.284031784
F		1.529265691		0.657760562		-2.264037516
F		-1.485847655		1.651642978		-2.169814855
F		-1.152028415		-1.277284079		-1.002999997
F		-0.10544561		-1.013427072		-3.21576711
F		0.503719215		0.395911095		-0.041330132
F		1.068023887		-2.062766284		-0.065104566
