12
-185.77729729
Al		0.275493722		-2.3280495		-1.827064466
Al		2.034981231		-0.54087661		-0.808056662
Al		-0.335426056		0.309048153		-1.801514439
F		3.62546196		-0.179935687		-0.032339995
F		-0.166875351		-4.032167834		-2.229474631
F		2.101664567		-1.812734449		-2.287482497
F		1.529460133		0.656392752		-2.264399237
F		-1.483537719		1.652225545		-2.174820943
F		-1.143682129		-1.275220956		-0.996586332
F		-0.11553939		-1.015930921		-3.218393595
F		0.503744676		0.397334358		-0.041445017
F		1.074449949		-2.069596686		-0.06496445
