12
-185.77729729
Al		0.275176472		-2.328129501		-1.826376911
Al		2.03750214		-0.540240814		-0.813520004
Al		-0.337629715		0.308492385		-1.796738652
F		3.62856399		-0.179153335		-0.039062752
F		-0.167265744		-4.032266303		-2.228628586
F		2.107414946		-1.821205024		-2.28343166
F		1.529231875		0.657998442		-2.263974608
F		-1.486249383		1.651541662		-2.168944231
F		-1.153479943		-1.277642883		-1.004115417
F		-0.10369017		-1.01299162		-3.21531033
F		0.503714787		0.395663571		-0.041310152
F		1.066906311		-2.061578388		-0.065128934
