12
-185.77729729
Al		0.275129472		-2.328141353		-1.826275051
Al		2.037875608		-0.540146622		-0.814329388
Al		-0.337956183		0.308410049		-1.796031128
F		3.62902355		-0.179037431		-0.040058716
F		-0.16732358		-4.032280891		-2.228503246
F		2.108266854		-1.822459924		-2.282831536
F		1.529198059		0.658236322		-2.2639117
F		-1.486651111		1.651440346		-2.168073607
F		-1.154931471		-1.278001687		-1.005230837
F		-0.10193473		-1.012556168		-3.21485355
F		0.503710359		0.395416047		-0.041290172
F		1.065788735		-2.060390492		-0.065153302
