12
-185.77729729
Al		0.275094222		-2.328150242		-1.826198656
Al		2.038155709		-0.540075978		-0.814936426
Al		-0.338201034		0.308348297		-1.795500485
F		3.62936822		-0.178950503		-0.040805689
F		-0.167366957		-4.032291832		-2.228409241
F		2.108905785		-1.823401099		-2.282381443
F		1.529172697		0.658414732		-2.263864519
F		-1.486952407		1.651364359		-2.167420639
F		-1.156020117		-1.27827079		-1.006067402
F		-0.10061815		-1.012229579		-3.214510965
F		0.503707038		0.395230404		-0.041275187
F		1.064950553		-2.05949957		-0.065171578
