12
-185.77729729
Al		0.275070722		-2.328156168		-1.826147726
Al		2.038342443		-0.540028882		-0.815341118
Al		-0.338364268		0.308307129		-1.795146723
F		3.629598		-0.178892551		-0.041303671
F		-0.167395875		-4.032299126		-2.228346571
F		2.109331739		-1.824028549		-2.282081381
F		1.529155789		0.658533672		-2.263833065
F		-1.487153271		1.651313701		-2.166985327
F		-1.156745881		-1.278450192		-1.006625112
F		-0.09974043		-1.012011853		-3.214282575
F		0.503704824		0.395106642		-0.041265197
F		1.064391765		-2.058905622		-0.065183762
