12
-185.77729729
Al		0.275058972		-2.328159131		-1.826122261
Al		2.03843581		-0.540005334		-0.815543464
Al		-0.338445885		0.308286545		-1.794969842
F		3.62971289		-0.178863575		-0.041552662
F		-0.167410334		-4.032302773		-2.228315236
F		2.109544716		-1.824342274		-2.28193135
F		1.529147335		0.658593142		-2.263817338
F		-1.487253703		1.651288372		-2.166767671
F		-1.157108763		-1.278539893		-1.006903967
F		-0.09930157		-1.01190299		-3.21416838
F		0.503703717		0.395044761		-0.041260202
F		1.064112371		-2.058608648		-0.065189854
