12
-185.77729729
Al		0.275470222		-2.328055426		-1.827013536
Al		2.035167965		-0.540829514		-0.808461354
Al		-0.33558929		0.309006985		-1.801160677
F		3.62569174		-0.179877735		-0.032837977
F		-0.166904269		-4.032175128		-2.229411961
F		2.102090521		-1.813361899		-2.287182435
F		1.529443225		0.656511692		-2.264367783
F		-1.483738583		1.652174887		-2.174385631
F		-1.144407893		-1.275400358		-0.997144042
F		-0.11466167		-1.015713195		-3.218165205
F		0.503742462		0.397210596		-0.041435027
F		1.073891161		-2.069002738		-0.064976634
