12
-185.77729729
Al		0.274941472		-2.328188761		-1.825867611
Al		2.03936948		-0.539769854		-0.817566924
Al		-0.339262055		0.308080705		-1.793201032
F		3.63086179		-0.178573815		-0.044042572
F		-0.167554924		-4.032339243		-2.228001886
F		2.111674486		-1.827479524		-2.28043104
F		1.529062795		0.659187842		-2.263660068
F		-1.488258023		1.651035082		-2.164591111
F		-1.160737583		-1.279436903		-1.009692517
F		-0.09491297		-1.01081436		-3.21302643
F		0.503692647		0.394425951		-0.041210252
F		1.061318431		-2.055638908		-0.065250774
