12
-185.77729729
Al		0.274917972		-2.328194687		-1.825816681
Al		2.039556214		-0.539722758		-0.817971616
Al		-0.339425289		0.308039537		-1.79284727
F		3.63109157		-0.178515863		-0.044540554
F		-0.167583842		-4.032346537		-2.227939216
F		2.11210044		-1.828106974		-2.280130978
F		1.529045887		0.659306782		-2.263628614
F		-1.488458887		1.650984424		-2.164155799
F		-1.161463347		-1.279616305		-1.010250227
F		-0.09403525		-1.010596634		-3.21279804
F		0.503690433		0.394302189		-0.041200262
F		1.060759643		-2.05504496		-0.065262958
