12
-185.77729729
Al		0.274847472		-2.328212465		-1.825663891
Al		2.040116416		-0.53958147		-0.819185692
Al		-0.339914991		0.307916033		-1.791785984
F		3.63178091		-0.178342007		-0.0460345
F		-0.167670596		-4.032368419		-2.227751206
F		2.113378302		-1.829989324		-2.279230792
F		1.528995163		0.659663602		-2.263534252
F		-1.489061479		1.65083245		-2.162849863
F		-1.163640639		-1.280154511		-1.011923357
F		-0.09140209		-1.009943456		-3.21211287
F		0.503683791		0.393930903		-0.041170292
F		1.059083279		-2.053263116		-0.06529951
