12
-185.77729729
Al		0.274835722		-2.328215428		-1.825638426
Al		2.040209783		-0.539557922		-0.819388038
Al		-0.339996608		0.307895449		-1.791609103
F		3.6318958		-0.178313031		-0.046283491
F		-0.167685055		-4.032372066		-2.227719871
F		2.113591279		-1.830303049		-2.279080761
F		1.528986709		0.659723072		-2.263518525
F		-1.489161911		1.650807121		-2.162632207
F		-1.164003521		-1.280244212		-1.012202212
F		-0.09096323		-1.009834593		-3.211998675
F		0.503682684		0.393869022		-0.041165297
F		1.058803885		-2.052966142		-0.065305602
