12
-185.77729729
Al		0.274823972		-2.328218391		-1.825612961
Al		2.04030315		-0.539534374		-0.819590384
Al		-0.340078225		0.307874865		-1.791432222
F		3.63201069		-0.178284055		-0.046532482
F		-0.167699514		-4.032375713		-2.227688536
F		2.113804256		-1.830616774		-2.27893073
F		1.528978255		0.659782542		-2.263502798
F		-1.489262343		1.650781792		-2.162414551
F		-1.164366403		-1.280333913		-1.012481067
F		-0.09052437		-1.00972573		-3.21188448
F		0.503681577		0.393807141		-0.041160302
F		1.058524491		-2.052669168		-0.065311694
