12
-185.77729729
Al		0.274776972		-2.328230243		-1.825511101
Al		2.040676618		-0.539440182		-0.820399768
Al		-0.340404693		0.307792529		-1.790724698
F		3.63247025		-0.178168151		-0.047528446
F		-0.16775735		-4.032390301		-2.227563196
F		2.114656164		-1.831871674		-2.278330606
F		1.528944439		0.660020422		-2.26343989
F		-1.489664071		1.650680476		-2.161543927
F		-1.165817931		-1.280692717		-1.013596487
F		-0.08876893		-1.009290278		-3.2114277
F		0.503677149		0.393559617		-0.041140322
F		1.057406915		-2.051481272		-0.065336062
