12
-185.77729729
Al		0.274765222		-2.328233206		-1.825485636
Al		2.040769985		-0.539416634		-0.820602114
Al		-0.34048631		0.307771945		-1.790547817
F		3.63258514		-0.178139175		-0.047777437
F		-0.167771809		-4.032393948		-2.227531861
F		2.114869141		-1.832185399		-2.278180575
F		1.528935985		0.660079892		-2.263424163
F		-1.489764503		1.650655147		-2.161326271
F		-1.166180813		-1.280782418		-1.013875342
F		-0.08833007		-1.009181415		-3.211313505
F		0.503676042		0.393497736		-0.041135327
F		1.057127521		-2.051184298		-0.065342154
