12
-185.77729729
Al		0.274753472		-2.328236169		-1.825460171
Al		2.040863352		-0.539393086		-0.82080446
Al		-0.340567927		0.307751361		-1.790370936
F		3.63270003		-0.178110199		-0.048026428
F		-0.167786268		-4.032397595		-2.227500526
F		2.115082118		-1.832499124		-2.278030544
F		1.528927531		0.660139362		-2.263408436
F		-1.489864935		1.650629818		-2.161108615
F		-1.166543695		-1.280872119		-1.014154197
F		-0.08789121		-1.009072552		-3.21119931
F		0.503674935		0.393435855		-0.041130332
F		1.056848127		-2.050887324		-0.065348246
