12
-185.77729729
Al		0.274729972		-2.328242095		-1.825409241
Al		2.041050086		-0.53934599		-0.821209152
Al		-0.340731161		0.307710193		-1.790017174
F		3.63292981		-0.178052247		-0.04852441
F		-0.167815186		-4.032404889		-2.227437856
F		2.115508072		-1.833126574		-2.277730482
F		1.528910623		0.660258302		-2.263376982
F		-1.490065799		1.65057916		-2.160673303
F		-1.167269459		-1.281051521		-1.014711907
F		-0.08701349		-1.008854826		-3.21097092
F		0.503672721		0.393312093		-0.041120342
F		1.056289339		-2.050293376		-0.06536043
