12
-185.77729729
Al		0.274659472		-2.328259873		-1.825256451
Al		2.041610288		-0.539204702		-0.822423228
Al		-0.341220863		0.307586689		-1.788955888
F		3.63361915		-0.177878391		-0.050018356
F		-0.16790194		-4.032426771		-2.227249846
F		2.116785934		-1.835008924		-2.276830296
F		1.528859899		0.660615122		-2.26328262
F		-1.490668391		1.650427186		-2.159367367
F		-1.169446751		-1.281589727		-1.016385037
F		-0.08438033		-1.008201648		-3.21028575
F		0.503666079		0.392940807		-0.041090372
F		1.054612975		-2.048511532		-0.065396982
