12
-185.77729729
Al		0.274588972		-2.328277651		-1.825103661
Al		2.04217049		-0.539063414		-0.823637304
Al		-0.341710565		0.307463185		-1.787894602
F		3.63430849		-0.177704535		-0.051512302
F		-0.167988694		-4.032448653		-2.227061836
F		2.118063796		-1.836891274		-2.27593011
F		1.528809175		0.660971942		-2.263188258
F		-1.491270983		1.650275212		-2.158061431
F		-1.171624043		-1.282127933		-1.018058167
F		-0.08174717		-1.00754847		-3.20960058
F		0.503659437		0.392569521		-0.041060402
F		1.052936611		-2.046729688		-0.065433534
