12
-185.77729729
Al		0.274565472		-2.328283577		-1.825052731
Al		2.042357224		-0.539016318		-0.824041996
Al		-0.341873799		0.307422017		-1.78754084
F		3.63453827		-0.177646583		-0.052010284
F		-0.168017612		-4.032455947		-2.226999166
F		2.11848975		-1.837518724		-2.275630048
F		1.528792267		0.661090882		-2.263156804
F		-1.491471847		1.650224554		-2.157626119
F		-1.172349807		-1.282307335		-1.018615877
F		-0.08086945		-1.007330744		-3.20937219
F		0.503657223		0.392445759		-0.041050412
F		1.052377823		-2.04613574		-0.065445718
