12
-185.77729729
Al		0.274506722		-2.328298392		-1.824925406
Al		2.042824059		-0.538898578		-0.825053726
Al		-0.342281884		0.307319097		-1.786656435
F		3.63511272		-0.177501703		-0.053255239
F		-0.168089907		-4.032474182		-2.226842491
F		2.119554635		-1.839087349		-2.274879893
F		1.528749997		0.661388232		-2.263078169
F		-1.491974007		1.650097909		-2.156537839
F		-1.174164217		-1.28275584		-1.020010152
F		-0.07867515		-1.006786429		-3.208801215
F		0.503651688		0.392136354		-0.041025437
F		1.050980853		-2.04465087		-0.065476178
