12
-185.77729729
Al		0.275423222		-2.328067278		-1.826911676
Al		2.035541433		-0.540735322		-0.809270738
Al		-0.335915758		0.308924649		-1.800453153
F		3.6261513		-0.179761831		-0.033833941
F		-0.166962105		-4.032189716		-2.229286621
F		2.102942429		-1.814616799		-2.286582311
F		1.529409409		0.656749572		-2.264304875
F		-1.484140311		1.652073571		-2.173515007
F		-1.145859421		-1.275759162		-0.998259462
F		-0.11290623		-1.015277743		-3.217708425
F		0.503738034		0.396963072		-0.041415047
F		1.072773585		-2.067814842		-0.065001002
