12
-185.77729729
Al		0.274459722		-2.328310244		-1.824823546
Al		2.043197527		-0.538804386		-0.82586311
Al		-0.342608352		0.307236761		-1.785948911
F		3.63557228		-0.177385799		-0.054251203
F		-0.168147743		-4.03248877		-2.226717151
F		2.120406543		-1.840342249		-2.274279769
F		1.528716181		0.661626112		-2.263015261
F		-1.492375735		1.649996593		-2.155667215
F		-1.175615745		-1.283114644		-1.021125572
F		-0.07691971		-1.006350977		-3.208344435
F		0.50364726		0.39188883		-0.041005457
F		1.049863277		-2.043462974		-0.065500546
