12
-185.77729729
Al		0.274400972		-2.328325059		-1.824696221
Al		2.043664362		-0.538686646		-0.82687484
Al		-0.343016437		0.307133841		-1.785064506
F		3.63614673		-0.177240919		-0.055496158
F		-0.168220038		-4.032507005		-2.226560476
F		2.121471428		-1.841910874		-2.273529614
F		1.528673911		0.661923462		-2.262936626
F		-1.492877895		1.649869948		-2.154578935
F		-1.177430155		-1.283563149		-1.022519847
F		-0.07472541		-1.005806662		-3.20777346
F		0.503641725		0.391579425		-0.040980482
F		1.048466307		-2.041978104		-0.065531006
