12
-185.77729729
Al		0.274365722		-2.328333948		-1.824619826
Al		2.043944463		-0.538616002		-0.827481878
Al		-0.343261288		0.307072089		-1.784533863
F		3.6364914		-0.177153991		-0.056243131
F		-0.168263415		-4.032517946		-2.226466471
F		2.122110359		-1.842852049		-2.273079521
F		1.528648549		0.662101872		-2.262889445
F		-1.493179191		1.649793961		-2.153925967
F		-1.178518801		-1.283832252		-1.023356412
F		-0.07340883		-1.005480073		-3.207430875
F		0.503638404		0.391393782		-0.040965497
F		1.047628125		-2.041087182		-0.065549282
