12
Properties=species:S:1:pos:R:3:forces:R:3 energy=-187.17324209 pbc="F F F"
Al    1.1002593800000002    0.23860231699999998    2.547549273    0.529757    -0.551245    -0.416016
Al    1.4195805    1.0353453    -0.1564796    -0.509172    0.449429    0.245323
Al    -0.508020162    1.0286602500000002    -2.238029573    0.616387    -0.593805    -0.158219
F    -1.620554572    -0.5561051530000001    -2.281986306    -0.347398    0.106474    0.119576
F    2.0602655530000002    -0.370292153    0.936851552    0.019121    -0.002394    -0.17193
F    0.17604083899999998    1.73443609    -3.898018933    -0.150305    0.325283    -0.049911
F    -0.30457201    2.007418453    -0.6101341490000001    -0.06264    0.005612    -0.123803
F    2.573815957    2.496695012    -0.303124143    0.162651    -0.035396    -0.060505
F    1.152034039    0.075869905    -1.765670254    0.116453    -0.050209    0.117684
F    0.39902371699999994    1.661780129    1.4834828389999999    0.023297    -0.036603    0.131906
F    2.696038669    0.49650087600000004    3.600452837    -0.059446    0.280654    0.220442
F    0.07981397500000001    -1.3914040520000002    2.777601371    -0.338707    0.102199    0.145453
