12
Properties=species:S:1:pos:R:3:forces:R:3 energy=-187.35959255 pbc="F F F"
Al    1.30666518    -0.238766183    2.360800073    -0.731078    -0.599431    -0.055289
Al    1.217291    1.2695295    -0.0003855000000000039    0.06856    -0.01316    0.103728
Al    -0.287162562    1.04616625    -2.324857273    0.550639    0.657844    -0.375967
F    -1.595435172    -0.259993953    -2.353696106    -0.427443    -0.374577    0.027107
F    2.2469197530000002    -0.25397495299999995    0.693680952    0.052833    0.037694    -0.063725
F    0.06676563899999999    2.14156679    -3.7065163329999997    -0.111801    -0.217984    0.273988
F    -0.43746781    1.9741882530000001    -0.6870940489999999    -0.080628    -0.020204    -0.035044
F    2.4106240569999997    2.660287512    -0.074426943    0.034742    0.037325    -0.015177
F    1.318574239    0.24084040499999998    -1.644533754    -0.034842    -0.054547    -0.02915
F    0.236570617    1.257544929    1.666730039    0.015243    0.083674    -0.045121
F    2.4090309690000002    0.432025576    3.6855534370000003    0.311855    0.139365    0.274291
F    0.28823517499999995    -1.768658852    2.499753571    0.351921    0.324002    -0.059642
