12
Properties=species:S:1:pos:R:3:forces:R:3 energy=-186.19078514 pbc="F F F"
Al    -0.320749638    0.93521156    -1.8083513359999999    -0.026787    0.62581    -0.033217
Al    -0.435177314    1.082234853    1.324042636    0.002256    -0.078669    0.014463
Al    -3.106682719    0.723685889    -1.876774342    0.796244    -1.484226    0.450498
F    -3.4723348609999998    0.035198408000000014    -3.8222951079999996    -0.411337    0.867398    -0.748725
F    -1.573348157    -0.509751501    -1.8640640450000001    0.342833    -0.228006    0.16305
F    -1.793654687    2.254192603    -1.902542983    -0.290006    -0.115701    -0.178333
F    -2.012921325    0.6607553389999999    0.507344424    -0.034508    0.179513    -0.004981
F    0.604053327    1.302301843    -0.263760311    0.063857    -0.151025    0.056797
F    -0.31935657500000003    2.774150197    1.975354347    -0.051346    0.006978    -0.01018
F    0.35313411499999997    -0.397198258    2.0290064450000003    0.034912    0.021643    0.005174
F    -4.2496880919999995    0.03424967000000001    -0.386704365    -0.509581    0.479949    0.357082
F    0.7440820269999999    1.2842453370000002    -3.262165829    0.083463    -0.123664    -0.071627
