12
Properties=species:S:1:pos:R:3:forces:R:3 energy=-187.38491424 pbc="F F F"
Al    1.32848868    -0.026844383    2.395690773    0.011749    -0.016058    -0.011535
Al    1.3008629999999999    1.211865    -0.08744    0.000896    0.000842    -0.000162
Al    -0.382319662    0.89526185    -2.2709614730000003    -0.013053    0.014833    0.011769
F    -1.947736472    -0.044724453    -2.011301506    -0.005189    -0.004857    0.000853
F    2.367149753    -0.186163353    0.801575252    -0.001807    0.001234    0.008231
F    0.240941139    1.5139128899999998    -3.919375233    0.004969    0.00358    -0.010256
F    -0.19143940999999998    2.209671953    -0.899358549    -0.000425    -0.00333    -0.007827
F    2.607981557    2.439837512    -0.323993443    -0.000165    -0.000155    3e-05
F    1.053649239    -0.123373495    -1.455115154    0.012315    -0.010265    0.001476
F    0.238537317    1.316857629    1.517224639    -0.009805    0.012624    -0.00193
F    2.2744428689999996    0.828701276    3.7601204370000003    0.005671    0.006415    0.008332
F    0.288092975    -1.5348883519999998    2.607611971    -0.005156    -0.004862    0.001019
