      12
SCF Done            -187.38491401
Al            1.288564680         0.042025617         2.440699773
Al            1.276784000         1.189243000        -0.083083000
Al           -0.325030662         0.842705850        -2.319112473
F            -1.697477472        -0.338500453        -2.204510506
F             2.090195753        -0.338837353         0.760056252
F             0.070427139         1.796349890        -3.808768233
F            -0.345608410         1.957327953        -0.779818549
F             2.587876557         2.420946512        -0.320355443
F             1.242256239         0.024601505        -1.610498154
F             0.421403317         1.517861629         1.605381639
F             2.523068869         0.619646276         3.635376437
F             0.047477975        -1.232047352         2.799076971
