12
Properties=species:S:1:pos:R:3:forces:R:3 energy=-184.37364253 pbc="F F F"
Al    -1.584878061    2.76571802    -1.488539091    1.619406    -1.438052    -1.466309
Al    -0.626812755    0.125014406    -2.266775974    -5.227469    1.673715    2.654677
Al    -1.9273581759999998    -0.277927718    -0.36765783700000004    1.161309    -3.129945    -2.331636
F    -0.745504541    3.550094436    0.0013697430000000066    0.146937    0.136633    -0.113996
F    -3.3030036469999997    3.112254393    -2.169915192    -0.258821    0.035771    -0.017138
F    -1.85972568    -1.796804627    -1.4836973610000002    -1.166431    1.333197    2.169675
F    -2.576863762    1.594755683    -0.42750803800000003    0.36895    -0.214866    -0.883794
F    -3.1599043630000003    -1.6034466319999998    0.28073605300000004    -0.251188    -0.623101    -0.055676
F    0.512321798    -0.420072141    -3.5423139040000002    -0.09815    0.529045    0.286245
F    0.008358274999999998    2.049282914    -2.321054631    1.240334    1.410632    -0.600024
F    -2.390678957    0.251322951    -2.173844628    2.172688    -0.176117    0.653515
F    -0.232024168    0.141486839    -0.369167408    0.292436    0.463088    -0.29554
