      12
SCF Done            -184.37364253
Al           -1.584329061         2.583027020        -1.357846091
Al           -0.691505755         0.202133406        -2.278282974
Al           -2.214524176        -0.576186718        -0.393893837
F            -0.722436541         3.692843436        -0.200202257
F            -3.029007647         3.173890393        -2.302687192
F            -1.563108680        -1.712808627        -1.516767361
F            -2.385817762         1.293162683        -0.228294038
F            -3.359104363        -1.523490632         0.678747053
F             0.519004798        -0.339118141        -3.484019904
F            -0.103890725         2.127489914        -2.476794631
F            -2.423864957         0.480684951        -2.338231628
F            -0.260165168         0.167440839        -0.447908408
