12
Properties=species:S:1:pos:R:3:forces:R:3 energy=-186.56193239 pbc="F F F"
Al    -0.299765138    1.19736746    -1.7300384359999998    0.014224    -0.063096    -0.00246
Al    -0.594840414    0.840350953    1.372538436    0.006153    0.021221    0.001305
Al    -2.935300919    0.536357689    -2.033057942    -0.022786    0.033195    0.011919
F    -3.358089561    0.559893008    -3.791749408    -0.000637    -0.003811    -0.007651
F    -1.2778031570000001    -0.453503401    -2.009306845    0.037098    0.016891    0.000251
F    -1.917291387    2.1686356030000002    -1.7934741829999998    -0.038428    0.011068    -0.001831
F    -2.096330325    0.549806939    0.399932524    -0.007239    -0.001871    -0.003401
F    0.559748927    1.270251443    -0.14094361100000002    0.001667    0.0028    0.005644
F    -0.5240229750000001    2.4776753969999996    2.248515947    -0.001731    -0.006268    -0.001609
F    0.246402915    -0.604037658    2.026322245    0.005012    -0.011224    0.00522
F    -4.268112192    0.09700647000000001    -0.819043665    0.005136    -0.003393    -0.00505
F    0.8764935269999999    1.571485937    -3.074956029    0.001531    0.004488    -0.002337
