12
Properties=species:S:1:pos:R:3:forces:R:3 energy=-183.82377297 pbc="F F F"
Al    -0.071378657    1.661448396    2.1664123209999997    -1.049044    0.714595    0.402777
Al    2.835078696    2.1563890249999997    2.069527375    -1.188089    -7.816416    1.899529
Al    1.4212528580000001    2.484326381    -0.650418253    4.017959    -3.970051    -0.137411
F    0.928370352    3.146894119    2.864632432    -0.536115    0.715094    0.32287
F    -1.559295747    2.674433343    2.174449695    1.55447    -1.068032    -0.064662
F    -0.51858706    -0.06498021799999999    2.76716566    0.022592    0.1228    -0.102059
F    2.2008327690000002    1.581528585    1.9046238340000001    3.144474    6.781917    -0.413465
F    2.850316742    1.9213380720000002    -0.127417654    -3.101986    1.664251    -1.59598
F    1.065450314    3.076376952    -2.495941804    -0.332385    0.544652    -0.881456
F    1.732579868    4.172343387000001    0.670766265    -0.182586    2.871405    0.967124
F    3.494314966    2.848639411    2.217041368    -1.62013    -0.461572    -0.698998
F    -0.0049552    1.823460968    0.18833170500000002    -0.729161    -0.098645    0.301732
