      12
SCF Done            -168.32313518
Al           -0.101966613         1.646756372         2.164132420
Al            2.573087696         2.393427025         1.864332375
Al            1.444114884         2.562465784        -0.674245254
F             0.992065378         3.113026136         2.840566463
F            -1.522704683         2.649252322         2.174218786
F            -0.498217071        -0.020828266         2.751054630
F             1.859087753         1.056855593         1.915115865
F             2.868955745         1.918961053        -0.100273616
F             1.079445409         3.049564933        -2.427351812
F             1.725786894         4.146059387         0.636399267
F             4.039538968         3.112274377         2.426928380
F            -0.033526191         1.796801010         0.222622693
