      12
SCF Done            -183.82377297
Al           -0.101966657         1.646756396         2.164132321
Al            2.573087696         2.393427025         1.864332375
Al            1.444114858         2.562465381        -0.674245253
F             0.992065352         3.113026119         2.840566432
F            -1.522704747         2.649252343         2.174218695
F            -0.498217060        -0.020828218         2.751054660
F             1.859087769         1.056855585         1.915115834
F             2.868955742         1.918961072        -0.100273654
F             1.079445314         3.049564952        -2.427351804
F             1.725786868         4.146059387         0.636399265
F             4.039538966         3.112274411         2.426928368
F            -0.033526200         1.796800968         0.222622705
