12
Properties=species:S:1:pos:R:3:forces:R:3 energy=-186.38549282 pbc="F F F"
Al    -0.10540955699999999    1.720251996    2.155169821    0.081809    0.259206    -0.089973
Al    2.545327796    2.575601625    1.753547775    0.099284    0.090124    0.024881
Al    1.355125958    2.586296381    -0.6558746529999999    0.012191    -0.035392    0.09157
F    1.0661612520000001    2.9781977189999997    2.975422232    -0.012955    -0.00392    -0.001933
F    -1.5743239470000001    2.854013343    1.846790795    -0.054924    0.05408    0.005093
F    -0.5033766599999999    0.11032388200000001    3.18408986    -0.077637    -0.301134    0.037573
F    1.820592169    0.835091885    1.7595316339999998    0.012646    -0.063079    0.004555
F    3.0786599420000003    1.9636815719999998    -0.160176954    -0.008044    -0.010633    -0.027434
F    1.0443413140000002    3.011177852    -2.390283604    -0.01523    0.003222    -0.061363
F    1.581247968    3.9354115870000004    0.710136865    0.000853    0.01907    9.2e-05
F    4.102180766    3.173542511    2.450698068    -0.044073    -0.010832    -0.020701
F    0.038173399999999996    1.627462268    0.183874305    0.006079    -0.000714    0.03764
