      12
SCF Done            -186.79567520
Al            0.445687493        -0.598081758         1.754408139
Al            2.299904565        -1.745721172        -0.442421997
Al           -0.918308981        -1.874396958        -1.080062343
F             3.311534807        -0.316189993        -0.965057480
F            -1.945704754        -0.748217288        -2.074350797
F             2.509854695        -3.563836894        -0.323010643
F            -1.395653666        -3.616834402        -1.295814120
F             2.021049097        -1.394951693         1.326315802
F             0.818620764        -1.508662282        -1.491195165
F             0.339597452        -1.169399163         3.476875289
F             0.560023071         1.137130999         1.220987636
F            -0.808515168        -1.468153083         0.719335314
