      12
SCF Done            -187.36028479
Al            1.318229680         0.007427117         2.425018273
Al            1.276784000         1.189243000        -0.083083000
Al           -0.354696162         0.877303850        -2.303430973
F            -1.832083972        -0.181510453        -2.133355006
F             2.225303253        -0.272444353         0.780680252
F             0.174652139         1.674792890        -3.863862733
F            -0.278401410         2.080998953        -0.837056049
F             2.587876557         2.420946512        -0.320355443
F             1.139611239        -0.057737995        -1.534527654
F             0.321734317         1.410137629         1.566024639
F             2.418843369         0.741202276         3.690471437
F             0.182084475        -1.389037352         2.727921471
