12
Properties=species:S:1:pos:R:3:forces:R:3 energy=-186.34943521 pbc="F F F"
Al    -1.675255761    2.52223422    -1.2139684910000001    -0.024254    0.00843    -0.02054
Al    -0.5498198550000001    0.028565906    -2.380139974    0.002995    -0.011782    0.009585
Al    -2.240066476    -0.315341018    -0.525416637    0.01183    -0.009984    -0.000109
F    -0.487648341    3.311472936    0.014665743000000009    0.002096    0.023082    0.00619
F    -2.9540192469999997    3.386793293    -2.219023092    0.005575    -0.016196    0.002077
F    -1.1704567799999999    -1.678728827    -1.532884361    -0.009967    -0.001707    -0.0094
F    -2.8306171620000002    1.455011583    -0.08501583799999998    0.005171    0.000259    0.012501
F    -3.163648163    -1.3632790320000001    0.637604653    -0.003834    -2e-06    4.4e-05
F    0.675795798    -0.582086541    -3.575451304    -0.000376    0.000701    -0.003751
F    -0.504782625    1.9282370139999998    -2.637175331    0.012736    0.001799    0.0042
F    -2.515009957    0.34159475100000003    -2.383591128    -0.004878    0.015819    -0.001512
F    -0.40805336799999997    0.529516139    -0.42863420799999996    0.002906    -0.010419    0.000716
