12
Properties=species:S:1:pos:R:3:forces:R:3 energy=-186.38522049 pbc="F F F"
Al    -0.134905757    1.637731196    2.093958221    0.102723    0.153779    -0.136182
Al    2.5684093960000003    2.560205425    1.776580375    -0.06236    -0.065419    -0.038937
Al    1.400982358    2.767079781    -0.6050356530000001    0.000124    0.02399    -0.056965
F    0.897933452    3.1823973189999997    2.609155432    -0.011386    0.008487    0.023568
F    -1.717900947    2.594408743    2.329842395    -0.078155    0.073904    -0.034869
F    -0.50179726    -0.20438431799999998    2.43554966    -0.049519    -0.218815    0.147316
F    1.937113569    0.8202182849999999    2.164875834    0.036145    0.013971    -0.025555
F    2.900477742    1.7168131720000002    -0.06981095400000001    0.032142    -0.002942    -0.008605
F    0.888854114    3.032076052    -2.349550004    0.002705    -0.002372    0.027787
F    2.042786768    4.113628587    0.576737665    -0.004835    0.017264    0.016995
F    4.109634166    3.176301711    2.490614268    0.050572    0.017647    0.027763
F    0.0495568    1.958697468    0.357582705    -0.018157    -0.019493    0.057687
