12
-186.56215295
Al		-0.360374378		1.03412555		-1.817157346
Al		-0.447325871		1.074441031		1.281991351
Al		-3.015182283		0.459616568		-1.856772079
F		-3.533118245		0.314354716		-3.604112901
F		-1.379164498		-0.562731414		-1.842415548
F		-1.947266403		2.065926389		-1.892550661
F		-2.034983657		0.715554655		0.455389249
F		0.594968266		1.269570327		-0.297812305
F		-0.301873401		2.738765084		1.990740651
F		0.366611838		-0.354382361		2.049732028
F		-4.278953647		0.210867896		-0.578716673
F		0.746405389		1.246311773		-3.233313434
