12
-186.56215295
Al		-0.359644206		1.034292188		-1.816694188
Al		-0.447215649		1.074466099		1.282056701
Al		-3.014234319		0.459829226		-1.856363853
F		-3.533400483		0.314276992		-3.604989929
F		-1.379557366		-0.562850236		-1.84244191
F		-1.947673065		2.065871389		-1.892578241
F		-2.035128753		0.715522015		0.455322037
F		0.594678636		1.269496133		-0.298420531
F		-0.301884685		2.73869298		1.990719227
F		0.366571964		-0.354322179		2.049708082
F		-4.279395623		0.21078033		-0.578299665
F		0.746283943		1.246287787		-3.233194912
