12
-186.56215295
Al		-0.35927912		1.034375507		-1.816462609
Al		-0.447160538		1.074478633		1.282089376
Al		-3.013760337		0.459935555		-1.85615974
F		-3.533541602		0.31423813		-3.605428443
F		-1.3797538		-0.562909647		-1.842455091
F		-1.947876396		2.065843889		-1.892592031
F		-2.035201301		0.715505695		0.455288431
F		0.594533821		1.269459036		-0.298724644
F		-0.301890327		2.738656928		1.990708515
F		0.366552027		-0.354292088		2.049696109
F		-4.279616611		0.210736547		-0.578091161
F		0.74622322		1.246275794		-3.233135651
