12
-186.56215295
Al		-0.358183862		1.034625464		-1.815767872
Al		-0.446995205		1.074516235		1.282187401
Al		-3.012338391		0.460254542		-1.855547401
F		-3.533964959		0.314121544		-3.606743985
F		-1.380343102		-0.56308788		-1.842494634
F		-1.948486389		2.065761389		-1.892633401
F		-2.035418945		0.715456735		0.455187613
F		0.594099376		1.269347745		-0.299636983
F		-0.301907253		2.738548772		1.990676379
F		0.366492216		-0.354201815		2.04966019
F		-4.280279575		0.210605198		-0.577465649
F		0.746041051		1.246239815		-3.232957868
