12
-186.56215295
Al		-0.36292998		1.033542317		-1.818778399
Al		-0.447711648		1.074353293		1.281762626
Al		-3.018500157		0.458872265		-1.85820087
F		-3.532130412		0.31462675		-3.601043303
F		-1.37778946		-0.562315537		-1.842323281
F		-1.945843086		2.066118889		-1.892454131
F		-2.034475821		0.715668895		0.455624491
F		0.595981971		1.269830006		-0.295683514
F		-0.301833907		2.739017448		1.990815635
F		0.366751397		-0.354592998		2.049815839
F		-4.277406731		0.211174377		-0.580176201
F		0.74683045		1.246395724		-3.233728261
