12
-186.56215295
Al		-0.352707572		1.035875249		-1.812294187
Al		-0.44616854		1.074704245		1.282677526
Al		-3.005228661		0.461849477		-1.852485706
F		-3.536081744		0.313538614		-3.613321695
F		-1.383289612		-0.563979045		-1.842692349
F		-1.951536354		2.065348889		-1.892840251
F		-2.036507165		0.715211935		0.454683523
F		0.591927151		1.26879129		-0.304198678
F		-0.301991883		2.738007992		1.990515699
F		0.366193161		-0.35375045		2.049480595
F		-4.283594395		0.209948453		-0.574338089
F		0.745130206		1.24605992		-3.232068953
