12
-186.56215295
Al		-0.35015197		1.036458482		-1.810673134
Al		-0.445782763		1.074791983		1.282906251
Al		-3.001910787		0.46259378		-1.851056915
F		-3.537069577		0.31326658		-3.616391293
F		-1.38466465		-0.564394922		-1.842784616
F		-1.952959671		2.065156389		-1.892936781
F		-2.037015001		0.715097695		0.454448281
F		0.590913446		1.268531611		-0.306327469
F		-0.302031377		2.737755628		1.990440715
F		0.366053602		-0.353539813		2.049396784
F		-4.285141311		0.209641972		-0.572878561
F		0.744705145		1.245975969		-3.231654126
