12
-186.56215295
Al		-0.347596368		1.037041715		-1.809052081
Al		-0.445396986		1.074879721		1.283134976
Al		-2.998592913		0.463338083		-1.849628124
F		-3.53805741		0.312994546		-3.619460891
F		-1.386039688		-0.564810799		-1.842876883
F		-1.954382988		2.064963889		-1.893033311
F		-2.037522837		0.714983455		0.454213039
F		0.589899741		1.268271932		-0.30845626
F		-0.302070871		2.737503264		1.990365731
F		0.365914043		-0.353329176		2.049312973
F		-4.286688227		0.209335491		-0.571419033
F		0.744280084		1.245892018		-3.231239299
