12
-186.56215295
Al		-0.347231282		1.037125034		-1.808820502
Al		-0.445341875		1.074892255		1.283167651
Al		-2.998118931		0.463444412		-1.849424011
F		-3.538198529		0.312955684		-3.619899405
F		-1.386236122		-0.56487021		-1.842890064
F		-1.954586319		2.064936389		-1.893047101
F		-2.037595385		0.714967135		0.454179433
F		0.589754926		1.268234835		-0.308760373
F		-0.302076513		2.737467212		1.990355019
F		0.365894106		-0.353299085		2.049301
F		-4.286909215		0.209291708		-0.571210529
F		0.744219361		1.245880025		-3.231180038
