12
-186.56215295
Al		-0.345405852		1.037541629		-1.807662607
Al		-0.44506632		1.074954925		1.283331026
Al		-2.995749021		0.463976057		-1.848403446
F		-3.538904124		0.312761374		-3.622091975
F		-1.387218292		-0.565167265		-1.842955969
F		-1.955602974		2.064798889		-1.893116051
F		-2.037958125		0.714885535		0.454011403
F		0.589030851		1.26804935		-0.310280938
F		-0.302104723		2.737286952		1.990301459
F		0.365794421		-0.35314863		2.049241135
F		-4.288014155		0.209072793		-0.570168009
F		0.743915746		1.24582006		-3.230883733
