12
-186.56215295
Al		-0.345040766		1.037624948		-1.807431028
Al		-0.445011209		1.074967459		1.283363701
Al		-2.995275039		0.464082386		-1.848199333
F		-3.539045243		0.312722512		-3.622530489
F		-1.387414726		-0.565226676		-1.84296915
F		-1.955806305		2.064771389		-1.893129841
F		-2.038030673		0.714869215		0.453977797
F		0.588886036		1.268012253		-0.310585051
F		-0.302110365		2.7372509		1.990290747
F		0.365774484		-0.353118539		2.049229162
F		-4.288235143		0.20902901		-0.569959505
F		0.743855023		1.245808067		-3.230824472
