12
-186.56215295
Al		-0.343580422		1.037958224		-1.806504712
Al		-0.444790765		1.075017595		1.283494401
Al		-2.993379111		0.464507702		-1.847382881
F		-3.539609719		0.312567064		-3.624284545
F		-1.388200462		-0.56546432		-1.843021874
F		-1.956619629		2.064661389		-1.893185001
F		-2.038320865		0.714803935		0.453843373
F		0.588306776		1.267863865		-0.311801503
F		-0.302132933		2.737106692		1.990247899
F		0.365694736		-0.352998175		2.04918127
F		-4.289119095		0.208853878		-0.569125489
F		0.743612131		1.245760095		-3.230587428
