12
-186.56215295
Al		-0.342485164		1.038208181		-1.805809975
Al		-0.444625432		1.075055197		1.283592426
Al		-2.991957165		0.464826689		-1.846770542
F		-3.540033076		0.312450478		-3.625600087
F		-1.388789764		-0.565642553		-1.843061417
F		-1.957229622		2.064578889		-1.893226371
F		-2.038538509		0.714754975		0.453742555
F		0.587872331		1.267752574		-0.312713842
F		-0.302149859		2.736998536		1.990215763
F		0.365634925		-0.352907902		2.049145351
F		-4.289782059		0.208722529		-0.568499977
F		0.743429962		1.245724116		-3.230409645
