12
-186.56215295
Al		-0.342120078		1.0382915		-1.805578396
Al		-0.444570321		1.075067731		1.283625101
Al		-2.991483183		0.464933018		-1.846566429
F		-3.540174195		0.312411616		-3.626038601
F		-1.388986198		-0.565701964		-1.843074598
F		-1.957432953		2.064551389		-1.893240161
F		-2.038611057		0.714738655		0.453708949
F		0.587727516		1.267715477		-0.313017955
F		-0.302155501		2.736962484		1.990205051
F		0.365614988		-0.352877811		2.049133378
F		-4.290003047		0.208678746		-0.568291473
F		0.743369239		1.245712123		-3.230350384
