12
-186.56215295
Al		-0.340659734		1.038624776		-1.80465208
Al		-0.444349877		1.075117867		1.283755801
Al		-2.989587255		0.465358334		-1.845749977
F		-3.540738671		0.312256168		-3.627792657
F		-1.389771934		-0.565939608		-1.843127322
F		-1.958246277		2.064441389		-1.893295321
F		-2.038901249		0.714673375		0.453574525
F		0.587148256		1.267567089		-0.314234407
F		-0.302178069		2.736818276		1.990162203
F		0.36553524		-0.352757447		2.049085486
F		-4.290886999		0.208503614		-0.567457457
F		0.743126347		1.245664151		-3.23011334
