12
-186.56215295
Al		-0.339929562		1.038791414		-1.804188922
Al		-0.444239655		1.075142935		1.283821151
Al		-2.988639291		0.465570992		-1.845341751
F		-3.541020909		0.312178444		-3.628669685
F		-1.390164802		-0.56605843		-1.843153684
F		-1.958652939		2.064386389		-1.893322901
F		-2.039046345		0.714640735		0.453507313
F		0.586858626		1.267492895		-0.314842633
F		-0.302189353		2.736746172		1.990140779
F		0.365495366		-0.352697265		2.04906154
F		-4.291328975		0.208416048		-0.567040449
F		0.743004901		1.245640165		-3.229994818
