12
-186.56215295
Al		-0.33554853		1.039791242		-1.801409974
Al		-0.443578323		1.075293343		1.284213251
Al		-2.982951507		0.46684694		-1.842892395
F		-3.542714337		0.3117121		-3.633931853
F		-1.39252201		-0.566771362		-1.843311856
F		-1.961092911		2.064056389		-1.893488381
F		-2.039916921		0.714444895		0.453104041
F		0.585120846		1.267047731		-0.318491989
F		-0.302257057		2.736313548		1.990012235
F		0.365256122		-0.352336173		2.048917864
F		-4.293980831		0.207890652		-0.564538401
F		0.742276225		1.245496249		-3.229283686
