12
-186.56215295
Al		-0.335183444		1.039874561		-1.801178395
Al		-0.443523212		1.075305877		1.284245926
Al		-2.982477525		0.466953269		-1.842688282
F		-3.542855456		0.311673238		-3.634370367
F		-1.392718444		-0.566830773		-1.843325037
F		-1.961296242		2.064028889		-1.893502171
F		-2.039989469		0.714428575		0.453070435
F		0.584976031		1.267010634		-0.318796102
F		-0.302262699		2.736277496		1.990001523
F		0.365236185		-0.352306082		2.048905891
F		-4.294201819		0.207846869		-0.564329897
F		0.742215502		1.245484256		-3.229224425
