12
-186.56215295
Al		-0.334088186		1.040124518		-1.800483658
Al		-0.443357879		1.075343479		1.284343951
Al		-2.981055579		0.467272256		-1.842075943
F		-3.543278813		0.311556652		-3.635685909
F		-1.393307746		-0.567009006		-1.84336458
F		-1.961906235		2.063946389		-1.893543541
F		-2.040207113		0.714379615		0.452969617
F		0.584541586		1.266899343		-0.319708441
F		-0.302279625		2.73616934		1.989969387
F		0.365176374		-0.352215809		2.048869972
F		-4.294864783		0.20771552		-0.563704385
F		0.742033333		1.245448277		-3.229046642
