12
-186.56215295
Al		-0.360739464		1.034042231		-1.817388925
Al		-0.447380982		1.074428497		1.281958676
Al		-3.015656265		0.459510239		-1.856976192
F		-3.532977126		0.314393578		-3.603674387
F		-1.378968064		-0.562672003		-1.842402367
F		-1.947063072		2.065953889		-1.892536871
F		-2.034911109		0.715570975		0.455422855
F		0.595113081		1.269607424		-0.297508192
F		-0.301867759		2.738801136		1.990751363
F		0.366631775		-0.354412452		2.049744001
F		-4.278732659		0.210911679		-0.578925177
F		0.746466112		1.246323766		-3.233372695
