12
-186.56215295
Al		-0.330802412		1.040874389		-1.798399447
Al		-0.44286188		1.075456285		1.284638026
Al		-2.976789741		0.468229217		-1.840238926
F		-3.544548884		0.311206894		-3.639632535
F		-1.395075652		-0.567543705		-1.843483209
F		-1.963736214		2.063698889		-1.893667651
F		-2.040860045		0.714232735		0.452667163
F		0.583238251		1.26656547		-0.322445458
F		-0.302330403		2.735844872		1.989872979
F		0.364996941		-0.35194499		2.048762215
F		-4.296853675		0.207321473		-0.561827849
F		0.741486826		1.24534034		-3.228513293
