12
-186.56215295
Al		-0.329342068		1.041207665		-1.797473131
Al		-0.442641436		1.075506421		1.284768726
Al		-2.974893813		0.468654533		-1.839422474
F		-3.54511336		0.311051446		-3.641386591
F		-1.395861388		-0.567781349		-1.843535933
F		-1.964549538		2.063588889		-1.893722811
F		-2.041150237		0.714167455		0.452532739
F		0.582658991		1.266417082		-0.32366191
F		-0.302352971		2.735700664		1.989830131
F		0.364917193		-0.351824626		2.048714323
F		-4.297737627		0.207146341		-0.560993833
F		0.741243934		1.245292368		-3.228276249
