12
-186.56215295
Al		-0.369866614		1.031959256		-1.8231784
Al		-0.448758757		1.074115147		1.281141801
Al		-3.027505815		0.456852014		-1.862079017
F		-3.529449151		0.315365128		-3.592711537
F		-1.374057214		-0.561186728		-1.842072842
F		-1.941979797		2.066641389		-1.892192121
F		-2.033097409		0.715978975		0.456263005
F		0.598733456		1.270534849		-0.289905367
F		-0.301726709		2.739702436		1.991019163
F		0.3671302		-0.355164727		2.050043326
F		-4.273207959		0.212006254		-0.584137777
F		0.747984187		1.246623591		-3.23485422
