12
-186.56215295
Al		-0.36475541		1.033125722		-1.819936294
Al		-0.447987203		1.074290623		1.281599251
Al		-3.020870067		0.45834062		-1.859221435
F		-3.531424817		0.31482106		-3.598850733
F		-1.37680729		-0.562018482		-1.842257376
F		-1.944826431		2.066256389		-1.892385181
F		-2.034113081		0.715750495		0.455792521
F		0.596706046		1.270015491		-0.294162949
F		-0.301805697		2.739197708		1.990869195
F		0.366851082		-0.354743453		2.049875704
F		-4.276301791		0.211393292		-0.581218721
F		0.747134065		1.246455689		-3.234024566
