12
-186.56215295
Al		-0.371692044		1.031542661		-1.824336295
Al		-0.449034312		1.074052477		1.280978426
Al		-3.029875725		0.456320369		-1.863099582
F		-3.528743556		0.315559438		-3.590518967
F		-1.373075044		-0.560889673		-1.842006937
F		-1.940963142		2.066778889		-1.892123171
F		-2.032734669		0.716060575		0.456431035
F		0.599457531		1.270720334		-0.288384802
F		-0.301698499		2.739882696		1.991072723
F		0.367229885		-0.355315182		2.050103191
F		-4.272103019		0.212225169		-0.585180297
F		0.748287802		1.246683556		-3.235150525
