12
-186.56215295
Al		-0.374247646		1.030959428		-1.825957348
Al		-0.449420089		1.073964739		1.280749701
Al		-3.033193599		0.455576066		-1.864528373
F		-3.527755723		0.315831472		-3.587449369
F		-1.371700006		-0.560473796		-1.84191467
F		-1.939539825		2.066971389		-1.892026641
F		-2.032226833		0.716174815		0.456666277
F		0.600471236		1.270980013		-0.286256011
F		-0.301659005		2.74013506		1.991147707
F		0.367369444		-0.355525819		2.050187002
F		-4.270556103		0.21253165		-0.586639825
F		0.748712863		1.246767507		-3.235565352
