12
-186.56215295
Al		-0.374977818		1.03079279		-1.826420506
Al		-0.449530311		1.073939671		1.280684351
Al		-3.034141563		0.455363408		-1.864936599
F		-3.527473485		0.315909196		-3.586572341
F		-1.371307138		-0.560354974		-1.841888308
F		-1.939133163		2.067026389		-1.891999061
F		-2.032081737		0.716207455		0.456733489
F		0.600760866		1.271054207		-0.285647785
F		-0.301647721		2.740207164		1.991169131
F		0.367409318		-0.355586001		2.050210948
F		-4.270114127		0.212619216		-0.587056833
F		0.748834309		1.246791493		-3.235683874
