12
-186.56215295
Al		-0.376073076		1.030542833		-1.827115243
Al		-0.449695644		1.073902069		1.280586326
Al		-3.035563509		0.455044421		-1.865548938
F		-3.527050128		0.316025782		-3.585256799
F		-1.370717836		-0.560176741		-1.841848765
F		-1.93852317		2.067108889		-1.891957691
F		-2.031864093		0.716256415		0.456834307
F		0.601195311		1.271165498		-0.284735446
F		-0.301630795		2.74031532		1.991201267
F		0.367469129		-0.355676274		2.050246867
F		-4.269451163		0.212750565		-0.587682345
F		0.749016478		1.246827472		-3.235861657
