12
-186.56215295
Al		-0.378263592		1.030042919		-1.828504717
Al		-0.45002631		1.073826865		1.280390276
Al		-3.038407401		0.454406447		-1.866773616
F		-3.526203414		0.316258954		-3.582625715
F		-1.369539232		-0.559820275		-1.841769679
F		-1.937303184		2.067273889		-1.891874951
F		-2.031428805		0.716354335		0.457035943
F		0.602064201		1.27138808		-0.282910768
F		-0.301596943		2.740531632		1.991265539
F		0.367588751		-0.35585682		2.050318705
F		-4.268125235		0.213013263		-0.588933369
F		0.749380816		1.24689943		-3.236217223
