12
-186.56215295
Al		-0.379723936		1.029709643		-1.829431033
Al		-0.450246754		1.073776729		1.280259576
Al		-3.040303329		0.453981131		-1.867590068
F		-3.525638938		0.316414402		-3.580871659
F		-1.368753496		-0.559582631		-1.841716955
F		-1.93648986		2.067383889		-1.891819791
F		-2.031138613		0.716419615		0.457170367
F		0.602643461		1.271536468		-0.281694316
F		-0.301574375		2.74067584		1.991308387
F		0.367668499		-0.355977184		2.050366597
F		-4.267241283		0.213188395		-0.589767385
F		0.749623708		1.246947402		-3.236454267
