12
-186.56215295
Al		-0.380089022		1.029626324		-1.829662612
Al		-0.450301865		1.073764195		1.280226901
Al		-3.040777311		0.453874802		-1.867794181
F		-3.525497819		0.316453264		-3.580433145
F		-1.368557062		-0.55952322		-1.841703774
F		-1.936286529		2.067411389		-1.891806001
F		-2.031066065		0.716435935		0.457203973
F		0.602788276		1.271573565		-0.281390203
F		-0.301568733		2.740711892		1.991319099
F		0.367688436		-0.356007275		2.05037857
F		-4.267020295		0.213232178		-0.589975889
F		0.749684431		1.246959395		-3.236513528
