12
-186.56215295
Al		-0.381914452		1.029209729		-1.830820507
Al		-0.45057742		1.073701525		1.280063526
Al		-3.043147221		0.453343157		-1.868814746
F		-3.524792224		0.316647574		-3.578240575
F		-1.367574892		-0.559226165		-1.841637869
F		-1.935269874		2.067548889		-1.891737051
F		-2.030703325		0.716517535		0.457372003
F		0.603512351		1.27175905		-0.279869638
F		-0.301540523		2.740892152		1.991372659
F		0.367788121		-0.35615773		2.050438435
F		-4.265915355		0.213451093		-0.591018409
F		0.749988046		1.24701936		-3.236809833
