12
-186.56215295
Al		-0.384470054		1.028626496		-1.83244156
Al		-0.450963197		1.073613787		1.279834801
Al		-3.046465095		0.452598854		-1.870243537
F		-3.523804391		0.316919608		-3.575170977
F		-1.366199854		-0.558810288		-1.841545602
F		-1.933846557		2.067741389		-1.891640521
F		-2.030195489		0.716631775		0.457607245
F		0.604526056		1.272018729		-0.277740847
F		-0.301501029		2.741144516		1.991447643
F		0.36792768		-0.356368367		2.050522246
F		-4.264368439		0.213757574		-0.592477937
F		0.750413107		1.247103311		-3.23722466
