12
-186.56215295
Al		-0.385200226		1.028459858		-1.832904718
Al		-0.451073419		1.073588719		1.279769451
Al		-3.047413059		0.452386196		-1.870651763
F		-3.523522153		0.316997332		-3.574293949
F		-1.365806986		-0.558691466		-1.84151924
F		-1.933439895		2.067796389		-1.891612941
F		-2.030050393		0.716664415		0.457674457
F		0.604815686		1.272092923		-0.277132621
F		-0.301489745		2.74121662		1.991469067
F		0.367967554		-0.356428549		2.050546192
F		-4.263926463		0.21384514		-0.592894945
F		0.750534553		1.247127297		-3.237343182
