12
-186.56215295
Al		-0.387025656		1.028043263		-1.834062613
Al		-0.451348974		1.073526049		1.279606076
Al		-3.049782969		0.451854551		-1.871672328
F		-3.522816558		0.317191642		-3.572101379
F		-1.364824816		-0.558394411		-1.841453335
F		-1.93242324		2.067933889		-1.891543991
F		-2.029687653		0.716746015		0.457842487
F		0.605539761		1.272278408		-0.275612056
F		-0.301461535		2.74139688		1.991522627
F		0.368067239		-0.356579004		2.050606057
F		-4.262821523		0.214064055		-0.593937465
F		0.750838168		1.247187262		-3.237639487
