12
-186.56215295
Al		-0.388851086		1.027626668		-1.835220508
Al		-0.451624529		1.073463379		1.279442701
Al		-3.052152879		0.451322906		-1.872692893
F		-3.522110963		0.317385952		-3.569908809
F		-1.363842646		-0.558097356		-1.84138743
F		-1.931406585		2.068071389		-1.891475041
F		-2.029324913		0.716827615		0.458010517
F		0.606263836		1.272463893		-0.274091491
F		-0.301433325		2.74157714		1.991576187
F		0.368166924		-0.356729459		2.050665922
F		-4.261716583		0.21428297		-0.594979985
F		0.751141783		1.247247227		-3.237935792
