12
-186.56215295
Al		-0.389216172		1.027543349		-1.835452087
Al		-0.45167964		1.073450845		1.279410026
Al		-3.052626861		0.451216577		-1.872897006
F		-3.521969844		0.317424814		-3.569470295
F		-1.363646212		-0.558037945		-1.841374249
F		-1.931203254		2.068098889		-1.891461251
F		-2.029252365		0.716843935		0.458044123
F		0.606408651		1.27250099		-0.273787378
F		-0.301427683		2.741613192		1.991586899
F		0.368186861		-0.35675955		2.050677895
F		-4.261495595		0.214326753		-0.595188489
F		0.751202506		1.24725922		-3.237995053
