12
-186.56215295
Al		-0.389581258		1.02746003		-1.835683666
Al		-0.451734751		1.073438311		1.279377351
Al		-3.053100843		0.451110248		-1.873101119
F		-3.521828725		0.317463676		-3.569031781
F		-1.363449778		-0.557978534		-1.841361068
F		-1.930999923		2.068126389		-1.891447461
F		-2.029179817		0.716860255		0.458077729
F		0.606553466		1.272538087		-0.273483265
F		-0.301422041		2.741649244		1.991597611
F		0.368206798		-0.356789641		2.050689868
F		-4.261274607		0.214370536		-0.595396993
F		0.751263229		1.247271213		-3.238054314
