12
-186.56215295
Al		-0.392501946		1.026793478		-1.837536298
Al		-0.452175639		1.073338039		1.279115951
Al		-3.056892699		0.450259616		-1.874734023
F		-3.520699773		0.317774572		-3.565523669
F		-1.361878306		-0.557503246		-1.84125562
F		-1.929373275		2.068346389		-1.891337141
F		-2.028599433		0.716990815		0.458346577
F		0.607711986		1.272834863		-0.271050361
F		-0.301376905		2.74193766		1.991683307
F		0.368366294		-0.357030369		2.050785652
F		-4.259506703		0.2147208		-0.597065025
F		0.751749013		1.247367157		-3.238528402
