12
-186.56215295
Al		-0.392867032		1.026710159		-1.837767877
Al		-0.45223075		1.073325505		1.279083276
Al		-3.057366681		0.450153287		-1.874938136
F		-3.520558654		0.317813434		-3.565085155
F		-1.361681872		-0.557443835		-1.841242439
F		-1.929169944		2.068373889		-1.891323351
F		-2.028526885		0.717007135		0.458380183
F		0.607856801		1.27287196		-0.270746248
F		-0.301371263		2.741973712		1.991694019
F		0.368386231		-0.35706046		2.050797625
F		-4.259285715		0.214764583		-0.597273529
F		0.751809736		1.24737915		-3.238587663
