12
-186.56215295
Al		-0.367311012		1.032542489		-1.821557347
Al		-0.44837298		1.074202885		1.281370526
Al		-3.024187941		0.457596317		-1.860650226
F		-3.530436984		0.315093094		-3.595781135
F		-1.375432252		-0.561602605		-1.842165109
F		-1.943403114		2.066448889		-1.892288651
F		-2.033605245		0.715864735		0.456027763
F		0.597719751		1.27027517		-0.292034158
F		-0.301766203		2.739450072		1.990944179
F		0.366990641		-0.35495409		2.049959515
F		-4.274754875		0.211699773		-0.582678249
F		0.747559126		1.24653964		-3.234439393
