12
-186.56215295
Al		-0.39761315		1.025627012		-1.840778404
Al		-0.452947193		1.073162563		1.278658501
Al		-3.063528447		0.44877101		-1.877591605
F		-3.518724107		0.31831864		-3.559384473
F		-1.35912823		-0.556671492		-1.841071086
F		-1.926526641		2.068731389		-1.891144081
F		-2.027583761		0.717219295		0.458817061
F		0.609739396		1.273354221		-0.266792779
F		-0.301297917		2.742442388		1.991833275
F		0.368645412		-0.357451643		2.050953274
F		-4.256412871		0.215333762		-0.599984081
F		0.752599135		1.247535059		-3.239358056
