12
-186.56215295
Al		-0.398343322		1.025460374		-1.841241562
Al		-0.453057415		1.073137495		1.278593151
Al		-3.064476411		0.448558352		-1.877999831
F		-3.518441869		0.318396364		-3.558507445
F		-1.358735362		-0.55655267		-1.841044724
F		-1.926119979		2.068786389		-1.891116501
F		-2.027438665		0.717251935		0.458884273
F		0.610029026		1.273428415		-0.266184553
F		-0.301286633		2.742514492		1.991854699
F		0.368685286		-0.357511825		2.05097722
F		-4.255970895		0.215421328		-0.600401089
F		0.752720581		1.247559045		-3.239476578
