12
-186.56215295
Al		-0.398708408		1.025377055		-1.841473141
Al		-0.453112526		1.073124961		1.278560476
Al		-3.064950393		0.448452023		-1.878203944
F		-3.51830075		0.318435226		-3.558068931
F		-1.358538928		-0.556493259		-1.841031543
F		-1.925916648		2.068813889		-1.891102711
F		-2.027366117		0.717268255		0.458917879
F		0.610173841		1.273465512		-0.26588044
F		-0.301280991		2.742550544		1.991865411
F		0.368705223		-0.357541916		2.050989193
F		-4.255749907		0.215465111		-0.600609593
F		0.752781304		1.247571038		-3.239535839
