12
-186.56215295
Al		-0.399073494		1.025293736		-1.84170472
Al		-0.453167637		1.073112427		1.278527801
Al		-3.065424375		0.448345694		-1.878408057
F		-3.518159631		0.318474088		-3.557630417
F		-1.358342494		-0.556433848		-1.841018362
F		-1.925713317		2.068841389		-1.891088921
F		-2.027293569		0.717284575		0.458951485
F		0.610318656		1.273502609		-0.265576327
F		-0.301275349		2.742586596		1.991876123
F		0.36872516		-0.357572007		2.051001166
F		-4.255528919		0.215508894		-0.600818097
F		0.752842027		1.247583031		-3.2395951
