12
-186.56215295
Al		-0.400168752		1.025043779		-1.842399457
Al		-0.45333297		1.073074825		1.278429776
Al		-3.066846321		0.448026707		-1.879020396
F		-3.517736274		0.318590674		-3.556314875
F		-1.357753192		-0.556255615		-1.840978819
F		-1.925103324		2.068923889		-1.891047551
F		-2.027075925		0.717333535		0.459052303
F		0.610753101		1.2736139		-0.264663988
F		-0.301258423		2.742694752		1.991908259
F		0.368784971		-0.35766228		2.051037085
F		-4.254865955		0.215640243		-0.601443609
F		0.753024196		1.24761901		-3.239772883
