12
Properties=species:S:1:pos:R:3:forces:R:3 energy=-186.13173582 pbc="F F F"
Al    1.2204259800000001    0.086624317    2.4974098729999996    1.450919    -1.361088    -1.449186
Al    1.3076765000000001    1.1420276999999999    -0.1012594    -1.261768    0.719632    0.542866
Al    -0.396892962    0.88112125    -2.3150679729999997    1.885271    -1.574468    -0.156671
F    -1.739642772    -0.564214753    -2.230516906    -1.336418    0.044975    0.378793
F    2.0528899529999998    -0.29393775299999997    0.794290352    0.078398    0.025336    -0.56375
F    0.169664439    1.84766049    -3.930205733    -0.366182    1.185791    -0.46486
F    -0.38193060999999995    2.019358053    -0.736963949    -0.273549    0.081177    -0.331267
F    2.644042157    2.441802012    -0.33578774299999997    0.636637    0.074095    -0.20172
F    1.237590439    0.106570905    -1.631710254    0.397664    -0.131503    0.38624
F    0.412914517    1.628893729    1.628183239    -0.016176    -0.045253    0.434558
F    2.7209212689999998    0.594369276    3.661274037    0.095799    0.958856    0.909803
F    -0.046810624999999995    -1.395811652    2.806639771    -1.290592    0.02245    0.515195
