      12
SCF Done            -186.13173582
Al            1.460283980        -0.158247683         2.349926873
Al            1.130725500         1.359588700        -0.005874400
Al           -0.141445962         0.628593250        -2.416157973
F            -1.778375772        -0.244149753        -2.161746906
F             2.077335953        -0.321605753         0.568749352
F            -0.051638561         1.938713490        -3.744242733
F            -0.424978610         1.887863053        -0.941058949
F             2.639136157         2.361163012        -0.347451743
F             1.387452439         0.017293905        -1.484054254
F             0.485914517         1.440390729         1.769385239
F             2.442693269         0.713387276         3.677864037
F            -0.087263625        -1.074900652         2.870302771
