12
Properties=species:S:1:pos:R:3:forces:R:3 energy=-185.76929021 pbc="F F F"
Al    -0.072210528    -2.5027261110000003    -1.6721168610000001    -0.142522    -0.159875    0.22898
Al    1.7781876300000001    -0.690440256    -0.8539611239999999    0.15642    0.124382    -0.065913
Al    -0.588459706    0.158301403    -1.857388583    0.035581    0.173231    -0.135429
F    3.438297788    -0.296905616    -0.132912523    0.015724    0.006396    0.014123
F    -0.518668974    -4.194609893    -1.966334636    -0.019631    -0.08669    -0.026818
F    1.8141196379999998    -2.046138776    -2.236698589    0.132236    -0.017857    -0.101257
F    1.3167654949999998    0.44062083899999993    -2.3784259199999997    -0.032594    -0.031168    0.039237
F    -1.6642049220000001    1.533039531    -2.2927694109999996    -0.017327    0.021439    0.000927
F    -1.3840479860000001    -1.3191838519999999    -0.909407769    -0.00032    -0.093743    0.03549
F    -0.40122147399999997    -1.251636509    -3.1744381809999997    -0.014105    0.04229    -0.157786
F    0.33393899600000004    0.37307299799999993    -0.11339550200000001    -0.038996    0.086433    0.173852
F    0.831293134    -2.1136866100000002    0.028332327    -0.074467    -0.06484    -0.005405
