      12
SCF Done            -185.76929021
Al            0.213633472        -2.344397111        -1.689839861
Al            2.064031630        -0.532111256        -0.871684124
Al           -0.302615706         0.316630403        -1.875111583
F             3.678172788        -0.164039616        -0.147785523
F            -0.278793974        -4.061743893        -1.981207636
F             2.053994638        -1.913272776        -2.251571589
F             1.556640495         0.573486839        -2.393298920
F            -1.424329922         1.665905531        -2.307642411
F            -1.144172986        -1.186317852        -0.924280769
F            -0.161346474        -1.118770509        -3.189311181
F             0.573813996         0.505938998        -0.128268502
F             1.071168134        -1.980820610         0.013459327
