12
-186.39349496
Al		-0.023719657		1.627305796		2.135224221
Al		2.417972996		3.087984525		1.543847275
Al		1.165390958		2.893962781		-0.585820553
F		1.021835352		3.047897419		2.824194232
F		-1.703447647		2.764585743		2.180986495
F		-0.48162386		-0.038917718		2.75655236
F		1.697626469		0.444029085		1.976594134
F		3.181350942		1.717418172		-0.010888254
F		1.105953614		3.001614452		-2.324079804
F		1.797247868		3.720332787		0.625524765
F		4.271328966		3.155152311		2.533472468
F		0.0438979		1.810348268		0.187902305
