12
-186.39349496
Al		-0.089928613		1.643763972		2.15968502
Al		2.549223896		2.500282025		1.815026975
Al		1.401234284		2.613465184		-0.660641454
F		0.996645378		3.103006336		2.838047663
F		-1.550511283		2.666995922		2.175259986
F		-0.495664271		-0.023611266		2.75190043
F		1.834247553		0.962574593		1.924574065
F		2.917016545		1.887954453		-0.086522016
F		1.083523609		3.042187933		-2.411463812
F		1.736780894		4.080562987		0.634726267
F		4.075198968		3.118870977		2.44331978
F		-0.021614791		1.79888521		0.217281093
