12
-186.39349496
Al		-0.059833657		1.636282996		2.148566421
Al		2.489564396		2.767419525		1.691763475
Al		1.294032758		2.740963981		-0.626631953
F		1.008095352		3.077956819		2.831750632
F		-1.620027847		2.711354943		2.177862895
F		-0.48928226		-0.030568718		2.75401496
F		1.772147069		0.726872085		1.948219534
F		3.037168542		1.810437972		-0.052143054
F		1.093719014		3.023745452		-2.371743804
F		1.764265868		3.916821987		0.630543765
F		4.164348966		3.135362511		2.484298268
F		0.0081637		1.804095668		0.203927105
