12
-186.39349496
Al		-0.126042613		1.652741172		2.17302722
Al		2.620815296		2.179717025		1.962943175
Al		1.529876084		2.460466984		-0.701452854
F		0.982905378		3.133065736		2.845604063
F		-1.467091483		2.613765122		2.172136386
F		-0.503322671		-0.015262266		2.74936303
F		1.908768153		1.245417593		1.896199465
F		2.772834145		1.980974253		-0.127776816
F		1.071289009		3.064318933		-2.459127812
F		1.703798894		4.277052187		0.639745267
F		3.968218968		3.099081177		2.39414558
F		-0.057348991		1.79263261		0.233305893
