12
-186.39349496
Al		-0.035757657		1.630298196		2.139671621
Al		2.441836796		2.981129525		1.593152675
Al		1.208271558		2.842963181		-0.599424353
F		1.017255352		3.057917219		2.826713032
F		-1.675641047		2.746842143		2.179945295
F		-0.48417666		-0.036134718		2.75570656
F		1.722466669		0.538310085		1.967135934
F		3.133290142		1.748424772		-0.024639854
F		1.101875414		3.008991452		-2.339967804
F		1.786253868		3.785829187		0.627197765
F		4.235668966		3.148555711		2.517081068
F		0.0319865		1.808264068		0.193243905
