12
-186.39349496
Al		-0.083909657		1.642267796		2.157461221
Al		2.537291996		2.553709525		1.790374275
Al		1.379793958		2.638964781		-0.653839553
F		0.998935352		3.097996419		2.836788232
F		-1.564414647		2.675867743		2.175780495
F		-0.49438786		-0.025002718		2.75232336
F		1.821827469		0.915434085		1.929303134
F		2.941046942		1.872451172		-0.079646254
F		1.085562614		3.038499452		-2.403519804
F		1.742277868		4.047814787		0.633889765
F		4.093028966		3.122169311		2.451515468
F		-0.0156591		1.799927268		0.214610305
