12
-186.39349496
Al		-0.089928657		1.643763996		2.159684921
Al		2.549223896		2.500282025		1.815026975
Al		1.401234258		2.613464981		-0.660641453
F		0.996645352		3.103006319		2.838047632
F		-1.550511347		2.666995943		2.175259895
F		-0.49566426		-0.023611218		2.75190046
F		1.834247569		0.962574585		1.924574034
F		2.917016542		1.887954472		-0.086522054
F		1.083523514		3.042187952		-2.411463804
F		1.736780868		4.080562987		0.634726265
F		4.075198966		3.118871011		2.443319768
F		-0.0216148		1.798885168		0.217281105
