12
Properties=species:S:1:pos:R:3:forces:R:3 energy=-186.53819670 pbc="F F F"
Al    -0.579838938    1.48300766    -1.7578010359999998    0.269783    0.541625    0.173967
Al    -0.651788014    1.307624553    1.3465210360000002    -0.086239    -0.180569    -0.023038
Al    -3.163300519    0.575150489    -1.8206489419999998    -0.143581    -0.303691    -0.235618
F    -3.6448225610000002    0.45525520799999997    -3.5733432080000003    -0.002324    0.018956    0.013356
F    -1.389169157    -0.29095160100000006    -1.874697245    -0.188113    -0.417105    -0.03166
F    -2.236247987    2.2799220030000003    -1.775821383    0.13101    0.2022    0.01288
F    -2.171156325    0.789221339    0.497516724    -0.044729    -0.014061    -0.001727
F    0.39725612699999996    1.664303843    -0.23427861099999997    0.084171    0.016424    -0.131747
F    -0.646259575    2.910911997    2.137316347    -0.009634    0.276576    0.123169
F    0.35083251499999996    -0.115254458    2.020927045    0.070773    -0.114631    0.049782
F    -4.3649267919999994    0.10465306999999999    -0.5567328650000001    -0.201547    -0.039509    0.189855
F    0.5367553270000001    1.820456337    -3.175419029    0.120431    0.013786    -0.139218
