12
-186.35103317
Al		-1.851222261		2.52872332		-1.064982391
Al		-0.540843255		-0.042795694		-2.336786574
Al		-2.218203676		-0.301351518		-0.496676337
F		-0.751810841		3.686866536		-0.167969557
F		-3.011655547		3.177421193		-2.321727292
F		-1.36674668		-1.672855527		-1.732236861
F		-2.464636162		1.512109983		-0.041717938
F		-3.246938363		-1.309459132		0.601924353
F		0.620612098		-0.509654541		-3.641772804
F		-0.237945625		1.865230814		-2.429783231
F		-2.440075457		0.477386851		-2.320443728
F		-0.286305568		0.162122039		-0.419224308
