12
-186.35103317
Al		-1.901416189		2.518510685		-1.009904006
Al		-0.54400457		-0.057226996		-2.333238956
Al		-2.223940586		-0.288730712		-0.490459849
F		-0.74993688		3.687247911		-0.170025773
F		-3.00980557		3.177797666		-2.323757119
F		-1.363235088		-1.672141037		-1.736090154
F		-2.44418648		1.53292631		-0.073374415
F		-3.24682373		-1.311584546		0.601764964
F		0.62036989		-0.50755486		-3.641474
F		-0.205469493		1.855183122		-2.456202522
F		-2.435136557		0.478391751		-2.325863228
F		-0.280861963		0.16322958		-0.425197588
