12
-186.35103317
Al		-1.600252189		2.579786885		-1.340373806
Al		-0.52503677		0.029360804		-2.354524556
Al		-2.189519186		-0.364455512		-0.527758849
F		-0.76118028		3.684960111		-0.157687973
F		-3.02090497		3.175539266		-2.311577719
F		-1.384304688		-1.676428037		-1.712970354
F		-2.56688408		1.40802851		0.116564585
F		-3.24751253		-1.298831546		0.602720764
F		0.62182249		-0.52015246		-3.6432674
F		-0.400326093		1.915469322		-2.297686122
F		-2.464769957		0.472362351		-2.293346228
F		-0.313523563		0.15658398		-0.389357788
