12
-186.35103317
Al		-1.499864189		2.600212285		-1.450530406
Al		-0.51871417		0.058223404		-2.361619756
Al		-2.178045386		-0.389697112		-0.540191849
F		-0.76492808		3.684197511		-0.153575373
F		-3.02460477		3.174786466		-2.307517919
F		-1.391327888		-1.677857037		-1.705263754
F		-2.60778328		1.36639591		0.179877585
F		-3.24774213		-1.294580546		0.603039364
F		0.62230669		-0.52435166		-3.6438652
F		-0.465278293		1.935564722		-2.244847322
F		-2.474647757		0.470352551		-2.282507228
F		-0.324410763		0.15436878		-0.377411188
