12
-186.35103317
Al		-1.299088261		2.64106302		-1.670843691
Al		-0.506068955		0.115948606		-2.375810174
Al		-2.155097776		-0.440180318		-0.565057837
F		-0.772423741		3.682672236		-0.145350257
F		-3.032004447		3.173280793		-2.299398392
F		-1.40537428		-1.680715027		-1.689850561
F		-2.689581762		1.283130683		0.306503562
F		-3.248201163		-1.286078632		0.603676653
F		0.623275198		-0.532750141		-3.645060704
F		-0.595182725		1.975755514		-2.139169831
F		-2.494403357		0.466332951		-2.260829228
F		-0.346185168		0.149938439		-0.353518008
