12
-186.35103317
Al		-1.951610261		2.50829792		-0.954825791
Al		-0.547165855		-0.071658294		-2.329691374
Al		-2.229677476		-0.276109918		-0.484243337
F		-0.748063041		3.687629136		-0.172082157
F		-3.007955747		3.178173993		-2.325787092
F		-1.35972348		-1.671426527		-1.739943461
F		-2.423736962		1.553742583		-0.105030938
F		-3.246708763		-1.313710132		0.601605753
F		0.620127898		-0.505455341		-3.641175004
F		-0.172993425		1.845135414		-2.482622031
F		-2.430197657		0.479396651		-2.331282728
F		-0.275418368		0.164337239		-0.431170908
