12
-186.35103317
Al		-1.801028261		2.53893602		-1.120060691
Al		-0.537681955		-0.028364394		-2.340334174
Al		-2.212466776		-0.313972318		-0.502892837
F		-0.753684741		3.686485236		-0.165913257
F		-3.013505447		3.177044793		-2.319697392
F		-1.37025828		-1.673570027		-1.728383561
F		-2.485085762		1.491293683		-0.010061438
F		-3.247053163		-1.307333632		0.602083653
F		0.620854198		-0.511754141		-3.642071704
F		-0.270421725		1.875278514		-2.403363831
F		-2.445014357		0.476381951		-2.315024228
F		-0.291749168		0.161014439		-0.413251008
