12
-186.35103317
Al		-2.152386261		2.46744712		-0.734512591
Al		-0.559811055		-0.129383494		-2.315500974
Al		-2.252625076		-0.225626718		-0.459377337
F		-0.740567441		3.689154336		-0.180307357
F		-3.000556147		3.179679593		-2.333906692
F		-1.34567708		-1.668568527		-1.755356661
F		-2.341938562		1.637007783		-0.231656938
F		-3.246249563		-1.322212132		0.600968553
F		0.619159498		-0.497056941		-3.639979404
F		-0.043089025		1.804944614		-2.588299631
F		-2.410442057		0.483416251		-2.352960728
F		-0.253643968		0.168767639		-0.455064108
