12
-186.35103317
Al		-2.102192189		2.477659885		-0.789590806
Al		-0.55664977		-0.114952196		-2.319048556
Al		-2.246888186		-0.238247512		-0.465593849
F		-0.74244128		3.688773111		-0.178250973
F		-3.00240597		3.179303266		-2.331876719
F		-1.349188688		-1.669283037		-1.751503354
F		-2.36238808		1.61619151		-0.200000415
F		-3.24636453		-1.320086546		0.601127764
F		0.61940149		-0.49915646		-3.6402784
F		-0.075565093		1.814992322		-2.561880122
F		-2.415380957		0.482411351		-2.347541228
F		-0.259087563		0.16765998		-0.449090788
