12
-186.35103317
Al		-2.102192261		2.47765982		-0.789590891
Al		-0.556649755		-0.114952194		-2.319048574
Al		-2.246888176		-0.238247518		-0.465593837
F		-0.742441341		3.688773036		-0.178251057
F		-3.002406047		3.179303193		-2.331876792
F		-1.34918868		-1.669283027		-1.751503361
F		-2.362388162		1.616191483		-0.200000438
F		-3.246364363		-1.320086632		0.601127853
F		0.619401598		-0.499156541		-3.640278304
F		-0.075565125		1.814992314		-2.561880231
F		-2.415380957		0.482411351		-2.347541228
F		-0.259087568		0.167660039		-0.449090808
