12
-186.35103317
Al		-1.198700189		2.661488485		-1.781000206
Al		-0.49974637		0.144811204		-2.382905356
Al		-2.143623986		-0.465421912		-0.577490849
F		-0.77617148		3.681909711		-0.141237573
F		-3.03570417		3.172528066		-2.295338519
F		-1.412397488		-1.682144037		-1.682143954
F		-2.73048088		1.24149811		0.369816585
F		-3.24843093		-1.281827546		0.603995164
F		0.62375929		-0.53694926		-3.6456586
F		-0.660134893		1.995850922		-2.086330922
F		-2.504281157		0.464323151		-2.249990228
F		-0.357072363		0.14772318		-0.341571388
