12
-186.35103317
Al		-1.299088189		2.641063085		-1.670843606
Al		-0.50606897		0.115948604		-2.375810156
Al		-2.155097786		-0.440180312		-0.565057849
F		-0.77242368		3.682672311		-0.145350173
F		-3.03200437		3.173280866		-2.299398319
F		-1.405374288		-1.680715037		-1.689850554
F		-2.68958168		1.28313071		0.306503585
F		-3.24820133		-1.286078546		0.603676564
F		0.62327509		-0.53275006		-3.6450608
F		-0.595182693		1.975755522		-2.139169722
F		-2.494403357		0.466332951		-2.260829228
F		-0.346185163		0.14993838		-0.353517988
