12
-186.35103317
Al		-1.198700261		2.66148842		-1.781000291
Al		-0.499746355		0.144811206		-2.382905374
Al		-2.143623976		-0.465421918		-0.577490837
F		-0.776171541		3.681909636		-0.141237657
F		-3.035704247		3.172527993		-2.295338592
F		-1.41239748		-1.682144027		-1.682143961
F		-2.730480962		1.241498083		0.369816562
F		-3.248430763		-1.281827632		0.603995253
F		0.623759398		-0.536949341		-3.645658504
F		-0.660134925		1.995850914		-2.086331031
F		-2.504281157		0.464323151		-2.249990228
F		-0.357072368		0.147723239		-0.341571408
12
-186.35103317
Al		-1.248894261		2.65127572		-1.725921991
Al		-0.502907655		0.130379906		-2.379357774
Al		-2.149360876		-0.452801118		-0.571274337
F		-0.774297641		3.682290936		-0.143293957
F		-3.033854347		3.172904393		-2.297368492
F		-1.40888588		-1.681429527		-1.685997261
F		-2.710031362		1.262314383		0.338160062
F		-3.248315963		-1.283953132		0.603835953
F		0.623517298		-0.534849741		-3.645359604
F		-0.627658825		1.985803214		-2.112750431
F		-2.499342257		0.465328051		-2.255409728
F		-0.351628768		0.148830839		-0.347544708
12
-186.35103317
Al		-1.299088261		2.64106302		-1.670843691
Al		-0.506068955		0.115948606		-2.375810174
Al		-2.155097776		-0.440180318		-0.565057837
F		-0.772423741		3.682672236		-0.145350257
F		-3.032004447		3.173280793		-2.299398392
F		-1.40537428		-1.680715027		-1.689850561
F		-2.689581762		1.283130683		0.306503562
F		-3.248201163		-1.286078632		0.603676653
F		0.623275198		-0.532750141		-3.645060704
F		-0.595182725		1.975755514		-2.139169831
F		-2.494403357		0.466332951		-2.260829228
F		-0.346185168		0.149938439		-0.353518008
12
-186.35103317
Al		-1.349282261		2.63085032		-1.615765391
Al		-0.509230255		0.101517306		-2.372262574
Al		-2.160834676		-0.427559518		-0.558841337
F		-0.770549841		3.683053536		-0.147406557
F		-3.030154547		3.173657193		-2.301428292
F		-1.40186268		-1.680000527		-1.693703861
F		-2.669132162		1.303946983		0.274847062
F		-3.248086363		-1.288204132		0.603517353
F		0.623033098		-0.530650541		-3.644761804
F		-0.562706625		1.965707814		-2.165589231
F		-2.489464457		0.467337851		-2.266248728
F		-0.340741568		0.151046039		-0.359491308
12
-186.35103317
Al		-1.399476261		2.62063762		-1.560687091
Al		-0.512391555		0.087086006		-2.368714974
Al		-2.166571576		-0.414938718		-0.552624837
F		-0.768675941		3.683434836		-0.149462857
F		-3.028304647		3.174033593		-2.303458192
F		-1.39835108		-1.679286027		-1.697557161
F		-2.648682562		1.324763283		0.243190562
F		-3.247971563		-1.290329632		0.603358053
F		0.622790998		-0.528550941		-3.644462904
F		-0.530230525		1.955660114		-2.192008631
F		-2.484525557		0.468342751		-2.271668228
F		-0.335297968		0.152153639		-0.365464608
12
-186.35103317
Al		-1.449670261		2.61042492		-1.505608791
Al		-0.515552855		0.072654706		-2.365167374
Al		-2.172308476		-0.402317918		-0.546408337
F		-0.766802041		3.683816136		-0.151519157
F		-3.026454747		3.174409993		-2.305488092
F		-1.39483948		-1.678571527		-1.701410461
F		-2.628232962		1.345579583		0.211534062
F		-3.247856763		-1.292455132		0.603198753
F		0.622548898		-0.526451341		-3.644164004
F		-0.497754425		1.945612414		-2.218428031
F		-2.479586657		0.469347651		-2.277087728
F		-0.329854368		0.153261239		-0.371437908
12
-186.35103317
Al		-1.499864261		2.60021222		-1.450530491
Al		-0.518714155		0.058223406		-2.361619774
Al		-2.178045376		-0.389697118		-0.540191837
F		-0.764928141		3.684197436		-0.153575457
F		-3.024604847		3.174786393		-2.307517992
F		-1.39132788		-1.677857027		-1.705263761
F		-2.607783362		1.366395883		0.179877562
F		-3.247741963		-1.294580632		0.603039453
F		0.622306798		-0.524351741		-3.643865104
F		-0.465278325		1.935564714		-2.244847431
F		-2.474647757		0.470352551		-2.282507228
F		-0.324410768		0.154368839		-0.377411208
12
-186.35103317
Al		-1.550058261		2.58999952		-1.395452191
Al		-0.521875455		0.043792106		-2.358072174
Al		-2.183782276		-0.377076318		-0.533975337
F		-0.763054241		3.684578736		-0.155631757
F		-3.022754947		3.175162793		-2.309547892
F		-1.38781628		-1.677142527		-1.709117061
F		-2.587333762		1.387212183		0.148221062
F		-3.247627163		-1.296706132		0.602880153
F		0.622064698		-0.522252141		-3.643566204
F		-0.432802225		1.925517014		-2.271266831
F		-2.469708857		0.471357451		-2.287926728
F		-0.318967168		0.155476439		-0.383384508
12
-186.35103317
Al		-1.600252261		2.57978682		-1.340373891
Al		-0.525036755		0.029360806		-2.354524574
Al		-2.189519176		-0.364455518		-0.527758837
F		-0.761180341		3.684960036		-0.157688057
F		-3.020905047		3.175539193		-2.311577792
F		-1.38430468		-1.676428027		-1.712970361
F		-2.566884162		1.408028483		0.116564562
F		-3.247512363		-1.298831632		0.602720853
F		0.621822598		-0.520152541		-3.643267304
F		-0.400326125		1.915469314		-2.297686231
F		-2.464769957		0.472362351		-2.293346228
F		-0.313523568		0.156584039		-0.389357808
12
-186.35103317
Al		-1.650446261		2.56957412		-1.285295591
Al		-0.528198055		0.014929506		-2.350976974
Al		-2.195256076		-0.351834718		-0.521542337
F		-0.759306441		3.685341336		-0.159744357
F		-3.019055147		3.175915593		-2.313607692
F		-1.38079308		-1.675713527		-1.716823661
F		-2.546434562		1.428844783		0.084908062
F		-3.247397563		-1.300957132		0.602561553
F		0.621580498		-0.518052941		-3.642968404
F		-0.367850025		1.905421614		-2.324105631
F		-2.459831057		0.473367251		-2.298765728
F		-0.308079968		0.157691639		-0.395331108
12
-186.35103317
Al		-1.700640261		2.55936142		-1.230217291
Al		-0.531359355		0.000498206		-2.347429374
Al		-2.200992976		-0.339213918		-0.515325837
F		-0.757432541		3.685722636		-0.161800657
F		-3.017205247		3.176291993		-2.315637592
F		-1.37728148		-1.674999027		-1.720676961
F		-2.525984962		1.449661083		0.053251562
F		-3.247282763		-1.303082632		0.602402253
F		0.621338398		-0.515953341		-3.642669504
F		-0.335373925		1.895373914		-2.350525031
F		-2.454892157		0.474372151		-2.304185228
F		-0.302636368		0.158799239		-0.401304408
12
-186.35103317
Al		-1.750834261		2.54914872		-1.175138991
Al		-0.534520655		-0.013933094		-2.343881774
Al		-2.206729876		-0.326593118		-0.509109337
F		-0.755558641		3.686103936		-0.163856957
F		-3.015355347		3.176668393		-2.317667492
F		-1.37376988		-1.674284527		-1.724530261
F		-2.505535362		1.470477383		0.021595062
F		-3.247167963		-1.305208132		0.602242953
F		0.621096298		-0.513853741		-3.642370604
F		-0.302897825		1.885326214		-2.376944431
F		-2.449953257		0.475377051		-2.309604728
F		-0.297192768		0.159906839		-0.407277708
12
-186.35103317
Al		-1.801028261		2.53893602		-1.120060691
Al		-0.537681955		-0.028364394		-2.340334174
Al		-2.212466776		-0.313972318		-0.502892837
F		-0.753684741		3.686485236		-0.165913257
F		-3.013505447		3.177044793		-2.319697392
F		-1.37025828		-1.673570027		-1.728383561
F		-2.485085762		1.491293683		-0.010061438
F		-3.247053163		-1.307333632		0.602083653
F		0.620854198		-0.511754141		-3.642071704
F		-0.270421725		1.875278514		-2.403363831
F		-2.445014357		0.476381951		-2.315024228
F		-0.291749168		0.161014439		-0.413251008
12
-186.35103317
Al		-1.851222261		2.52872332		-1.064982391
Al		-0.540843255		-0.042795694		-2.336786574
Al		-2.218203676		-0.301351518		-0.496676337
F		-0.751810841		3.686866536		-0.167969557
F		-3.011655547		3.177421193		-2.321727292
F		-1.36674668		-1.672855527		-1.732236861
F		-2.464636162		1.512109983		-0.041717938
F		-3.246938363		-1.309459132		0.601924353
F		0.620612098		-0.509654541		-3.641772804
F		-0.237945625		1.865230814		-2.429783231
F		-2.440075457		0.477386851		-2.320443728
F		-0.286305568		0.162122039		-0.419224308
12
-186.35103317
Al		-1.901416261		2.51851062		-1.009904091
Al		-0.544004555		-0.057226994		-2.333238974
Al		-2.223940576		-0.288730718		-0.490459837
F		-0.749936941		3.687247836		-0.170025857
F		-3.009805647		3.177797593		-2.323757192
F		-1.36323508		-1.672141027		-1.736090161
F		-2.444186562		1.532926283		-0.073374438
F		-3.246823563		-1.311584632		0.601765053
F		0.620369998		-0.507554941		-3.641473904
F		-0.205469525		1.855183114		-2.456202631
F		-2.435136557		0.478391751		-2.325863228
F		-0.280861968		0.163229639		-0.425197608
12
-186.35103317
Al		-1.951610261		2.50829792		-0.954825791
Al		-0.547165855		-0.071658294		-2.329691374
Al		-2.229677476		-0.276109918		-0.484243337
F		-0.748063041		3.687629136		-0.172082157
F		-3.007955747		3.178173993		-2.325787092
F		-1.35972348		-1.671426527		-1.739943461
F		-2.423736962		1.553742583		-0.105030938
F		-3.246708763		-1.313710132		0.601605753
F		0.620127898		-0.505455341		-3.641175004
F		-0.172993425		1.845135414		-2.482622031
F		-2.430197657		0.479396651		-2.331282728
F		-0.275418368		0.164337239		-0.431170908
12
-186.35103317
Al		-2.001804261		2.49808522		-0.899747491
Al		-0.550327155		-0.086089594		-2.326143774
Al		-2.235414376		-0.263489118		-0.478026837
F		-0.746189141		3.688010436		-0.174138457
F		-3.006105847		3.178550393		-2.327816992
F		-1.35621188		-1.670712027		-1.743796761
F		-2.403287362		1.574558883		-0.136687438
F		-3.246593963		-1.315835632		0.601446453
F		0.619885798		-0.503355741		-3.640876104
F		-0.140517325		1.835087714		-2.509041431
F		-2.425258757		0.480401551		-2.336702228
F		-0.269974768		0.165444839		-0.437144208
12
-186.35103317
Al		-2.051998261		2.48787252		-0.844669191
Al		-0.553488455		-0.100520894		-2.322596174
Al		-2.241151276		-0.250868318		-0.471810337
F		-0.744315241		3.688391736		-0.176194757
F		-3.004255947		3.178926793		-2.329846892
F		-1.35270028		-1.669997527		-1.747650061
F		-2.382837762		1.595375183		-0.168343938
F		-3.246479163		-1.317961132		0.601287153
F		0.619643698		-0.501256141		-3.640577204
F		-0.108041225		1.825040014		-2.535460831
F		-2.420319857		0.481406451		-2.342121728
F		-0.264531168		0.166552439		-0.443117508
12
-186.35103317
Al		-2.102192261		2.47765982		-0.789590891
Al		-0.556649755		-0.114952194		-2.319048574
Al		-2.246888176		-0.238247518		-0.465593837
F		-0.742441341		3.688773036		-0.178251057
F		-3.002406047		3.179303193		-2.331876792
F		-1.34918868		-1.669283027		-1.751503361
F		-2.362388162		1.616191483		-0.200000438
F		-3.246364363		-1.320086632		0.601127853
F		0.619401598		-0.499156541		-3.640278304
F		-0.075565125		1.814992314		-2.561880231
F		-2.415380957		0.482411351		-2.347541228
F		-0.259087568		0.167660039		-0.449090808
12
-186.35103317
Al		-2.152386261		2.46744712		-0.734512591
Al		-0.559811055		-0.129383494		-2.315500974
Al		-2.252625076		-0.225626718		-0.459377337
F		-0.740567441		3.689154336		-0.180307357
F		-3.000556147		3.179679593		-2.333906692
F		-1.34567708		-1.668568527		-1.755356661
F		-2.341938562		1.637007783		-0.231656938
F		-3.246249563		-1.322212132		0.600968553
F		0.619159498		-0.497056941		-3.639979404
F		-0.043089025		1.804944614		-2.588299631
F		-2.410442057		0.483416251		-2.352960728
F		-0.253643968		0.168767639		-0.455064108
