      12
SCF Done            -187.32009463
Al            1.235167680         0.104302917         2.468926473
Al            1.276784000         1.189243000        -0.083083000
Al           -0.271632762         0.780429450        -2.347339173
F            -1.455185772        -0.621082453        -2.332590406
F             1.847002253        -0.458344753         0.722933052
F            -0.117177861         2.015152490        -3.709598133
F            -0.466581010         1.734720153        -0.676791049
F             2.587876557         2.420946512        -0.320355443
F             1.427017239         0.172812605        -1.747245054
F             0.600807517         1.711764829         1.676224239
F             2.710674769         0.400845476         3.536205437
F            -0.194813725        -0.949465352         2.927156871
