      12
SCF Done            -167.11485347
Al            1.235167262         0.104303316         2.468926637
Al            1.276784000         1.189243000        -0.083083000
Al           -0.271632385         0.780428964        -2.347339473
F            -1.455184604        -0.621082144        -2.332591277
F             1.847002192        -0.458344754         0.722933113
F            -0.117177016         2.015152454        -3.709597994
F            -0.466581026         1.734720081        -0.676791095
F             2.587876553         2.420946509        -0.320355444
F             1.427017423         0.172812728        -1.747245177
F             0.600807671         1.711765023         1.676224302
F             2.710675530         0.400846219         3.536205009
F            -0.194814041        -0.949464859         2.927156786
