12
Properties=species:S:1:pos:R:3:forces:R:3 energy=-186.70852340 pbc="F F F"
Al    0.5695991930000001    -0.592739158    1.783691239    0.782695    0.063821    -0.145606
Al    2.4248023649999997    -1.647016372    -0.6148999970000001    -1.266776    -0.346493    -1.093578
Al    -0.8728909810000001    -1.848345758    -0.928320643    -0.541244    0.489031    1.365732
F    3.699177207    -0.441303293    -1.30156618    0.54318    0.535745    0.475696
F    -1.907195854    -0.6044953879999999    -1.874853597    0.089621    0.30594    -0.785653
F    2.592922395    -3.516133694    -0.389622643    0.400462    -0.405487    0.444308
F    -1.3238615660000002    -3.6530082019999996    -1.1234602200000001    0.341365    -0.551577    -0.386052
F    1.988613997    -1.816795893    1.359694902    0.033927    0.311595    -0.144834
F    0.842635164    -1.555328882    -1.531829665    0.005129    -0.052001    -0.028617
F    -0.032862748    -1.141766563    3.4254487890000003    -0.338861    -0.091197    0.119541
F    0.06395907099999998    1.134929799    1.249671136    0.06592    0.050995    -0.020524
F    -0.863194868    -1.2102413829999998    0.770416814    -0.115417    -0.310372    0.199586
