12
Properties=species:S:1:pos:R:3:forces:R:3 energy=-185.77507853 pbc="F F F"
Al    0.26314727200000004    -1.996524711    -1.875691461    0.058945    -0.028846    -0.162793
Al    1.9675838299999997    -0.22454685599999996    -0.735078924    0.003266    0.028968    0.093791
Al    -0.40423950599999997    0.626299603    -1.724375183    -0.046513    0.049499    0.084484
F    3.551727988    0.080354584    0.066512477    0.007991    0.00301    -2e-06
F    -0.141210774    -3.7444376930000005    -2.3501952360000002    -0.010922    -0.032343    -0.001208
F    2.087688238    -1.480938576    -2.2813591890000002    -0.040242    -0.029385    -0.019149
F    1.471636495    0.9758178390000001    -2.15874492    0.049599    0.060793    -0.065852
F    -1.560136322    1.914106131    -2.0677828110000003    -0.003693    0.008326    -0.00535
F    -1.183201786    -1.058165252    -1.0102411690000002    -0.063537    0.020826    0.044114
F    -0.131717674    -0.684782709    -3.208001181    0.01816    -0.05229    -0.000492
F    0.42015239600000004    0.602435598    0.039015098    0.010145    -0.017904    -0.048455
F    1.036204134    -1.8543208100000002    -0.08359947300000001    0.0168    -0.010655    0.080911
