12
Properties=species:S:1:pos:R:3:forces:R:3 energy=-187.37114305 pbc="F F F"
Al    1.24482268    -0.026040183    2.340195573    0.026306    -0.08734    -0.144467
Al    1.3991799999999999    1.30423    -0.105232    0.022559    0.021192    -0.004084
Al    -0.374740062    0.82297625    -2.201696273    -0.057217    0.058304    0.15005
F    -1.915403672    -0.092473453    -1.771600106    -0.139013    -0.107653    0.026488
F    2.4475787529999997    -0.07677695300000001    0.8300234519999999    0.064466    -0.053235    0.010316
F    0.135964139    1.31462229    -3.9477068330000002    0.095777    0.118532    -0.238271
F    -0.08595481000000002    2.2749437529999996    -0.961452549    -0.051322    0.065583    -0.012695
F    2.690375557    2.517246512    -0.338901443    -0.004338    -0.004076    0.000785
F    1.104213239    -0.102998095    -1.405163754    0.111187    -0.128401    -0.020396
F    0.251318117    1.3559914290000001    1.455811039    -0.11719    0.122762    0.021484
F    2.079652469    0.746376076    3.842700437    0.165548    0.126966    0.190988
F    0.197385175    -1.541984352    2.3784735710000002    -0.116761    -0.132635    0.019801
