12
Properties=species:S:1:pos:R:3:forces:R:3 energy=-187.01433684 pbc="F F F"
Al    0.42634269300000005    -0.467343158    1.704806739    0.468318    -0.022411    -0.108629
Al    2.3277073649999998    -1.740739372    -0.553495997    -0.29951    0.274952    0.410582
Al    -0.8144789809999999    -2.003538758    -1.061102143    -0.093994    -0.162263    -0.298576
F    3.638510207    -0.36581079299999997    -0.6076346800000001    -0.091019    0.286245    0.140145
F    -1.926431354    -0.652005888    -1.7123655969999998    -0.168949    -0.231326    -0.224619
F    2.476875895    -3.579570694    -0.754103643    -0.20589    -0.191722    0.197962
F    -1.548823066    -3.692957202    -0.9991237199999999    -0.231262    0.035896    -0.28289
F    1.9593704969999999    -1.303654893    1.187461402    0.077411    0.052719    0.078643
F    0.891271164    -1.7001928819999998    -1.766261165    -0.001571    0.000622    0.010674
F    0.019509251999999977    -1.093280563    3.387482289    0.270509    -0.026399    0.061928
F    0.38452507100000005    1.3092577989999998    1.343669636    0.173206    0.012599    0.030387
F    -0.617806368    -1.578736883    0.683834314    0.102751    -0.028911    -0.015603
