      12
SCF Done            -186.13173555
Al            1.104979380         0.256138317         2.537745273
Al            1.422842500         1.018897300        -0.160291600
Al           -0.496749162         1.042979250        -2.228339573
F            -1.562736572        -0.495647153        -2.275736306
F             2.049012553        -0.382626153         0.943113552
F             0.150802839         1.702609090        -3.851255933
F            -0.293121010         1.977324453        -0.595683149
F             2.536616957         2.480730012        -0.293259143
F             1.138118039         0.064844905        -1.767330254
F             0.396759717         1.638422129         1.457120839
F             2.645134669         0.477282876         3.570850837
F             0.128376975        -1.326398052         2.756313371
