12
Properties=species:S:1:pos:R:3:forces:R:3 energy=-186.34928629 pbc="F F F"
Al    -1.692665161    2.85936932    -1.098125491    -0.011421    0.005915    0.023159
Al    -0.570111355    0.30403110600000005    -2.272315674    -0.010798    0.004809    -0.149682
Al    -2.129079776    -0.03960171799999995    -0.340087737    0.041646    0.002296    0.112665
F    -0.704923141    3.9476359359999997    -0.102102857    0.01939    0.019833    0.019227
F    -3.068149647    3.415482393    -2.142023192    -0.029447    0.012054    -0.026057
F    -1.36821268    -1.423135727    -1.609145461    -0.001484    -0.020734    -0.004321
F    -2.448744762    1.701285283    0.209348062    -0.00807    -0.006925    0.010131
F    -3.125513263    -1.053835332    0.8050728530000001    -0.034557    -0.019732    0.022406
F    0.527928098    -0.259082741    -3.634683304    0.020753    -0.002763    -0.00631
F    -0.37997962500000004    2.151314814    -2.304668631    0.024663    -0.002254    -0.016102
F    -2.488254757    0.7171487510000001    -2.147763828    0.002381    0.013278    -0.062577
F    -0.23977786799999998    0.422632239    -0.35022200800000003    -0.013056    -0.005777    0.077461
