      12
SCF Done            -186.34928629
Al           -1.706158161         2.558360320        -1.225799491
Al           -0.583604355         0.003022106        -2.399989674
Al           -2.142572776        -0.340610718        -0.467761737
F            -0.716246141         3.695034936        -0.209243857
F            -3.079472647         3.162881393        -2.249164192
F            -1.379535680        -1.675736727        -1.716286461
F            -2.460067762         1.448684283         0.102207062
F            -3.136836263        -1.306436332         0.697931853
F             0.516605098        -0.511683741        -3.741824304
F            -0.391302625         1.898713814        -2.411809631
F            -2.499577757         0.464547751        -2.254904828
F            -0.251100868         0.170031239        -0.457363008
