12
Properties=species:S:1:pos:R:3:forces:R:3 energy=-187.38419571 pbc="F F F"
Al    1.41043718    -0.04903798299999999    2.390152873    0.146268    0.115161    0.021561
Al    1.3489198    1.1031876999999999    -0.1312133    -0.009006    0.007095    -0.021339
Al    -0.526433762    1.02853025    -2.2155718729999996    -0.116479    -0.132246    0.065057
F    -2.032567972    0.012272047000000008    -2.009230106    0.075728    0.070092    -0.010482
F    1.9928595530000002    -0.528305353    0.653540552    -0.005972    -0.011881    0.011155
F    -0.083788761    1.90987479    -3.746590533    0.021053    0.047291    -0.063766
F    -0.23760141    2.113635853    -0.686902849    0.01267    0.009302    0.008772
F    2.803983657    2.163675712    -0.464392343    0.002346    0.000962    0.001873
F    1.0202290390000002    -0.041599994999999994    -1.653057554    0.013195    0.006409    0.005455
F    0.673817017    1.567732529    1.6340146389999999    -0.006657    -0.010068    0.009168
F    2.8100085690000003    0.349196976    3.4858322370000003    -0.0576    -0.02848    -0.046487
F    0.0014937750000000027    -1.129507852    2.8569303710000002    -0.075546    -0.073638    0.019033
