      12
SCF Done            -170.34402550
Al            0.557465195        -0.403522078         1.677488717
Al            2.269696363        -1.984089854        -0.632076490
Al           -1.018265982        -1.828498740        -0.815994136
F             3.447365711        -0.784828793        -1.404602203
F            -1.924687851        -0.581998889        -1.781747621
F             2.557640387        -3.748531677        -0.457591592
F            -1.451212573        -3.597172185        -0.739032669
F             1.980034996        -1.396541332         1.116550400
F             0.710610164        -1.661262882        -1.496954665
F             0.371890751        -0.841742441         3.458950281
F             0.651772579         1.247818366         0.987896072
F            -0.910732869        -1.287396321         0.913604812
