      12
SCF Done            -178.36309356
Al           -0.120023657         1.651244996         2.170803421
Al            2.608883396         2.233144525         1.938290475
Al            1.508435758         2.485965981        -0.694650953
F             0.985195352         3.128055819         2.844344632
F            -1.480994847         2.622636943         2.172656895
F            -0.502046260        -0.016653718         2.749785960
F             1.896348069         1.198277085         1.900928534
F             2.796864542         1.965470972        -0.120901054
F             1.073328014         3.060630452        -2.451183804
F             1.709295868         4.244303987         0.638908765
F             3.986048966         3.102379511         2.402341268
F            -0.051393300         1.793674668         0.230635105
