12
Properties=species:S:1:pos:R:3:forces:R:3 energy=-186.51677038 pbc="F F F"
Al    -0.235347938    1.1764300600000002    -2.078918136    0.069832    0.208486    -0.104059
Al    -0.617388414    1.042996853    1.109937736    -0.055661    0.155085    -0.232944
Al    -2.875007319    0.395121689    -1.454182342    0.011186    -0.076838    0.216355
F    -3.338658461    0.114938808    -3.287492808    -0.072391    -0.057381    -0.260989
F    -1.1341237569999998    -0.505967301    -1.6770903449999999    -0.043794    -0.218463    0.004258
F    -1.922860187    2.089911803    -1.892648583    0.075258    0.140559    -0.041873
F    -2.317760925    0.8253846389999999    0.516474324    -0.341016    0.001448    -0.155442
F    0.397072327    1.670509243    -0.383945211    0.017685    0.01218    -0.023694
F    -0.33839427499999997    2.556002897    2.182641747    0.135515    0.533098    0.358292
F    0.261406215    -0.570821558    1.505823645    0.271574    -0.687183    0.215136
F    -4.3762057919999995    0.03164156999999998    -0.459887065    -0.082834    -0.000524    0.044954
F    0.888779627    1.377387637    -3.419725929    0.014646    -0.010466    -0.019994
