12
Properties=species:S:1:pos:R:3:forces:R:3 energy=-184.00081213 pbc="F F F"
Al    0.06160674299999999    1.6997751959999998    2.440123621    0.190394    -1.513347    2.133431
Al    2.585869796    2.277264425    1.687839075    -1.405094    -1.576501    -1.420175
Al    1.422796258    2.5229783809999997    -0.623320753    -0.907756    -1.441766    2.230962
F    1.189318552    3.4269680190000003    2.544018332    -0.317239    1.064692    -0.913406
F    -1.569302847    2.675724443    1.968303895    -0.389073    2.251235    -1.583372
F    -0.26940156    -0.162800518    2.59926086    0.809528    -1.679426    -0.349011
F    1.323786569    0.745279585    2.091184734    -0.586007    -0.333034    -0.010126
F    3.376538242    2.085905972    -0.060438354    2.104893    1.452461    -0.15529
F    0.976250714    3.067454252    -2.320734604    0.174249    0.375183    0.085472
F    1.5121990680000001    3.827819387    0.870274565    0.753331    0.473846    -0.403326
F    3.996621866    3.237138411    2.385232768    -0.091722    0.187246    -0.470801
F    -0.21032499999999998    2.040775368    0.18292680500000003    -0.335504    0.739411    0.855642
