12
Properties=species:S:1:pos:R:3:forces:R:3 energy=-186.51676967 pbc="F F F"
Al    -0.185697538    0.9466916599999999    -2.074538136    0.15047    -0.164709    -0.096953
Al    -0.613840814    1.026585453    1.110249536    0.015159    -0.172604    -0.226694
Al    -2.917306919    0.590844889    -1.457913542    -0.023244    0.082424    0.213338
F    -3.440820661    0.587649008    -3.2965082079999997    -0.087569    0.012831    -0.262339
F    -1.347034557    -0.574488301    -1.841830945    0.126905    -0.098372    -0.037313
F    -1.701955987    2.121443003    -1.727200583    -0.130094    0.180895    -0.003357
F    -2.247674725    0.501090839    0.522658524    -0.308778    -0.147757    -0.152604
F    0.580915327    0.8198532430000001    -0.367722011    0.021327    -0.004647    -0.023373
F    -0.48276007499999996    2.872499297    1.4401567469999998    -0.038021    0.745353    0.187817
F    0.25639701499999995    -0.196139958    2.235126045    0.340675    -0.41618    0.376401
F    -4.442451992    0.33816877    -0.465732065    -0.076003    -0.032076    0.045546
F    0.931653627    1.179000837    -3.415943129    0.009173    0.014842    -0.02047
