12
Properties=species:S:1:pos:R:3:forces:R:3 energy=-180.19873118 pbc="F F F"
Al    0.375855393    -0.832346758    1.506993939    1.688481    -10.910571    -10.628384
Al    2.820878965    -1.927752072    -0.6922992969999999    4.074218    -2.115648    -2.186719
Al    -0.6715169809999999    -1.790251558    -0.904618543    -3.22659    -2.209403    -3.250311
F    3.184472307    -0.885415193    -0.9588627799999999    -1.914617    -2.340412    1.051886
F    -1.988768254    -0.29639648799999996    -2.031195197    1.593222    -2.295359    1.562913
F    2.663730195    -3.066580494    -0.517856443    -0.725766    4.06239    -0.082521
F    -1.248371166    -3.902221202    -1.04759432    0.61675    4.079622    0.11306
F    1.7243083970000002    -1.319768593    1.364441602    -6.769326    2.984189    3.396576
F    0.652451164    -1.502186082    -1.5348824650000001    0.094155    0.312203    -0.673841
F    0.081412152    -1.231934363    3.648699889    -0.894186    -0.83207    6.211296
F    0.41392677099999997    1.339234499    1.143749936    0.021796    6.124045    -0.689477
F    -0.904041468    -1.3880403829999999    0.911111414    5.441862    3.141014    5.175522
