12
Properties=species:S:1:pos:R:3:forces:R:3 energy=-187.16141977 pbc="F F F"
Al    0.341688493    -0.474889758    1.6772101389999998    -0.261251    -0.013808    -0.101604
Al    2.312151565    -1.926218172    -0.529011997    0.128391    -0.111308    -0.179745
Al    -0.911411981    -1.794787958    -1.058766343    0.093692    0.156827    0.272604
F    3.4917818069999997    -0.5186929929999999    -0.83674448    0.122991    -0.14376    -0.097973
F    -2.241599754    -0.583829288    -1.614666797    0.039348    0.165977    0.104149
F    2.947071695    -3.624111894    -0.288522643    0.169707    0.043861    -0.122696
F    -1.077103666    -3.606712402    -1.37959612    0.097218    -0.09441    0.153268
F    1.7234020970000001    -1.5126666930000001    1.118748802    -0.057159    -0.020299    -0.026754
F    0.849956764    -1.6895212819999998    -1.6577111649999998    -0.000313    0.000233    0.00364
F    0.385006452    -1.141131163    3.409484289    -0.166839    -0.012798    -0.016042
F    0.410996071    1.293906999    1.3045446360000001    -0.105108    0.002419    -0.013414
F    -0.9775891680000001    -1.292933083    0.708349314    -0.060674    0.027065    0.024563
