      12
SCF Done            -187.16141977
Al            0.308458493        -0.599843758         1.734416139
Al            2.372188565        -1.807182172        -0.552466997
Al           -0.881988981        -1.811540958        -0.954196343
F             3.546711807        -0.573533993        -1.176088480
F            -1.787047754        -0.485815288        -1.805944797
F             2.834115695        -3.561700894        -0.564230643
F            -1.153730666        -3.611698402        -0.972112120
F             1.843436097        -1.423562693         1.161323802
F             0.837462764        -1.508420282        -1.488450165
F             0.010046452        -1.173631163         3.428865289
F             0.340398071         1.134309999         1.188992636
F            -1.026476168        -1.444622083         0.826700314
