12
Properties=species:S:1:pos:R:3:forces:R:3 energy=-184.60051986 pbc="F F F"
Al    1.27792268    0.028137116999999996    2.480838473    -0.055739    -1.116117    2.357066
Al    1.4190494    1.1987805999999999    0.165021    1.069121    -3.33678    9.384531
Al    -0.7754927620000001    0.34811765000000006    -2.1096765729999998    2.422353    0.607047    3.243149
F    -1.352922772    -0.09243785300000001    -2.230026806    -2.235821    -1.930589    0.029888
F    2.0449700529999997    -0.304616153    0.698053652    -1.05557    2.850506    -2.421278
F    0.162329939    2.08785349    -4.173970733    0.446435    1.413287    -2.273623
F    -0.42436741    2.016486953    -0.749599649    -1.319068    0.009169    -1.839571
F    2.531586157    2.367046312    -0.307920443    0.219062    0.307554    -0.264153
F    1.3286102389999999    -0.027985794999999997    -1.676243454    -1.048317    -0.306605    -1.982693
F    0.455722517    1.548899829    1.5381436389999998    1.293352    0.111001    -3.662952
F    2.5075577690000004    0.581050876    3.587094837    -2.241397    -1.043143    -1.938657
F    0.066073275    -1.154392352    2.797358471    2.505593    2.434677    -0.631715
