      12
SCF Done            -166.94837776
Al            1.279370062         0.008170516         2.527628637
Al            1.357400400         1.149640600         0.156799000
Al           -0.263118385         0.850664964        -2.249177873
F            -1.750095404        -0.440492544        -2.213457677
F             2.041278992        -0.294073154         0.684332713
F             0.069033784         1.872765254        -3.875909594
F            -0.428551426         1.945912881        -0.831354695
F             2.586442153         2.421651309        -0.324623444
F             1.232487423         0.008666328        -1.709399577
F             0.458645671         1.551727023         1.520930702
F             2.477171530         0.566464219         3.561795409
F             0.094324759        -1.127218859         2.790849186
