12
Properties=species:S:1:pos:R:3:forces:R:3 energy=-186.73438709 pbc="F F F"
Al    1.28721558    0.091192417    2.359297573    0.022207    0.040101    -0.046467
Al    1.4066642    1.3112586000000002    -0.10658830000000001    0.578459    0.543432    -0.104685
Al    -0.26147516200000004    0.85197915    -2.248968273    0.049096    0.026885    0.033555
F    -1.609941172    -0.316996053    -2.220793806    0.017118    -0.002811    0.038586
F    2.324643253    -0.8660637529999999    0.949278452    0.791256    -1.609083    0.659425
F    0.031692939    1.7847548899999999    -3.7523699329999998    0.021625    0.019524    -0.002168
F    -0.88820381    2.1950673529999998    -0.913274149    -1.668118    0.78532    -0.500733
F    2.841247257    2.658975012    -0.366209043    1.053996    0.990174    -0.190745
F    1.308461739    -0.366871795    -2.074456654    0.08918    -1.264195    -1.429664
F    0.127977617    1.695872129    2.110461339    -0.966043    0.440426    1.588354
F    2.499323769    0.572545176    3.590285037    0.020521    0.020068    -0.005457
F    0.075521175    -1.144971852    2.794443971    -0.009297    0.010159    -0.040001
