      12
SCF Done            -186.85759851
Al            1.275313180         0.057480417         2.447704273
Al            1.152347800         1.334371200        -0.017304700
Al           -0.326416062         0.844321350        -2.318380573
F            -1.503162372        -0.565127053        -2.307227206
F             1.818352053        -0.358164653         0.682395752
F             0.054783139         1.814595090        -3.800498933
F            -0.356187510         2.159231353        -0.886731249
F             2.709808157         2.278739412        -0.384810043
F             1.109224839        -0.009810795        -1.427671354
F             0.535460517         1.721212529         1.766449439
F             2.549114969         0.589268876         3.621607837
F             0.187950475        -1.395877952         2.724822471
