12
Properties=species:S:1:pos:R:3:forces:R:3 energy=-186.54706663 pbc="F F F"
Al    -0.18871773799999997    1.03926486    -2.089551136    0.084839    -0.120833    -0.049648
Al    -0.6263046139999999    1.003181653    1.102108136    0.011552    -0.109664    -0.118766
Al    -2.896454119    0.540606289    -1.433141942    -0.017452    0.068428    0.110205
F    -3.418463061    0.533224408    -3.269944008    -0.044074    0.002221    -0.134874
F    -1.2765961570000002    -0.538266301    -1.838978145    0.085651    -0.038804    -0.017376
F    -1.756690587    2.126634403    -1.7285065830000002    -0.090375    0.095245    -0.004239
F    -2.268003325    0.567136239    0.5113979240000001    -0.161893    -0.066602    -0.079491
F    0.569685327    0.904364243    -0.371466611    0.01014    0.001521    -0.011944
F    -0.43705867499999995    2.809968097    1.533453747    -0.009617    0.394797    0.1141
F    0.19367961499999997    -0.294934758    2.146687845    0.165543    -0.216539    0.179527
F    -4.421246392    0.17021717    -0.47973106499999996    -0.038653    -0.019157    0.022974
F    0.914562627    1.348174237    -3.421833529    0.004339    0.009388    -0.01047
