      12
SCF Done            -186.54706663
Al           -0.352579738         0.980331860        -1.818463136
Al           -0.444607614         1.059187653         1.281953136
Al           -3.029429119         0.502542289        -1.859651942
F            -3.573636061         0.508752408        -3.603428008
F            -1.415036157        -0.574072301        -1.945278145
F            -1.906656587         2.074710403        -1.789352583
F            -1.988289325         0.503014239         0.459781924
F             0.621421327         1.154241243        -0.292564611
F            -0.448485675         2.816371097         1.813272747
F             0.467109615        -0.217368758         2.223334845
F            -4.268555392         0.173417170        -0.580079065
F             0.749202627         1.236298237        -3.233712529
