12
-187.38518821
Al		1.53131668		0.257032317		2.447014073
Al		1.241282		1.21163		-0.163046
Al		-0.528859562		0.60315625		-2.237759773
F		-1.781504172		-0.623243453		-1.975176606
F		2.168057253		-0.244149953		0.726432452
F		-0.280926861		1.55220629		-3.814331333
F		-0.47423581		1.831124753		-0.762079049
F		2.482017557		2.487698512		-0.558784443
F		1.175423239		-0.035774595		-1.621095254
F		0.518396117		1.622747429		1.585449039
F		2.812519969		0.902824076		3.501515437
F		0.315797675		-1.063514352		2.984831071
