12
-187.38518821
Al		1.53131668		0.257032317		2.447014073
Al		1.241282		1.21163		-0.163046
Al		-0.528859562		0.60315625		-2.237759773
F		-1.781504172		-0.623243453		-1.975176606
F		2.168057253		-0.244149953		0.726432452
F		-0.280926861		1.55220629		-3.814331333
F		-0.47423581		1.831124753		-0.762079049
F		2.482017557		2.487698512		-0.558784443
F		1.175423239		-0.035774595		-1.621095254
F		0.518396117		1.622747429		1.585449039
F		2.812519969		0.902824076		3.501515437
F		0.315797675		-1.063514352		2.984831071
12
-187.38518821
Al		1.40697418		0.152988817		2.445425073
Al		1.259033		1.2004365		-0.1230645
Al		-0.423978562		0.71947125		-2.280004273
F		-1.726030172		-0.496570953		-2.096959106
F		2.115615753		-0.298132953		0.741181952
F		-0.115672361		1.68643379		-3.806040333
F		-0.41664281		1.881859253		-0.765225049
F		2.534947057		2.454322512		-0.439569943
F		1.219104239		0.002647405		-1.623393754
F		0.479866617		1.581076929		1.599351039
F		2.678216969		0.749079576		3.562936437
F		0.168177175		-1.132081852		2.899069571
12
-187.38518821
Al		1.28263168		0.048945317		2.443836073
Al		1.276784		1.189243		-0.083083
Al		-0.319097562		0.83578625		-2.322248773
F		-1.670556172		-0.369898453		-2.218741606
F		2.063174253		-0.352115953		0.755931452
F		0.049582139		1.82066129		-3.797749333
F		-0.35904981		1.932593753		-0.768371049
F		2.587876557		2.420946512		-0.320355443
F		1.262785239		0.041069405		-1.625692254
F		0.441337117		1.539406429		1.613253039
F		2.543913969		0.595335076		3.624357437
F		0.020556675		-1.200649352		2.813308071
12
-187.38518821
Al		1.15828918		-0.055098183		2.442247073
Al		1.294535		1.1780495		-0.0431015
Al		-0.214216562		0.95210125		-2.364493273
F		-1.615082172		-0.243225953		-2.340524106
F		2.010732753		-0.406098953		0.770680952
F		0.214836639		1.95488879		-3.789458333
F		-0.30145681		1.983328253		-0.771517049
F		2.640806057		2.387570512		-0.201140943
F		1.306466239		0.079491405		-1.627990754
F		0.402807617		1.497735929		1.627155039
F		2.409610969		0.441590576		3.685778437
F		-0.127063825		-1.269216852		2.727546571
