12
Properties=species:S:1:pos:R:3:forces:R:3 energy=-178.76243595 pbc="F F F"
Al    -0.6176352380000001    0.9807593599999999    -1.700117936    -1.38888    -0.172523    6.692573
Al    -0.232652114    1.112978653    0.870021436    6.999599    1.133416    -19.889282
Al    -2.997498519    0.462658889    -1.897646942    -1.29169    -0.28555    -0.335289
F    -3.685825861    0.28069140800000003    -3.638734508    -0.429852    -0.117875    -1.309489
F    -0.770154757    -0.819082301    -1.860870445    3.807348    4.215178    0.45228
F    -1.498266487    2.549960203    -1.925125583    5.204165    -2.24802    0.575549
F    -2.104266125    0.706701339    0.7762592239999999    -0.066497    0.005755    1.055224
F    0.229699327    1.190599443    -0.299339311    -8.318944    -1.622011    9.221461
F    -0.32993117499999997    2.509600797    1.942887547    -0.335301    -1.365589    -0.116414
F    0.246835115    -0.159148458    1.993786045    -0.868193    1.100156    -0.16344
F    -4.312867092    0.20306306999999998    -0.603676565    -1.085535    -0.211927    1.189047
F    0.487078827    1.1958973370000001    -2.9380872289999997    -2.226217    -0.431009    2.627772
