      12
SCF Done            -178.76243595
Al           -0.356305238         1.037268360        -1.698489936
Al           -0.229825114         1.115511653         0.970805436
Al           -3.104800519         0.439790889        -1.880784942
F            -3.567075861         0.305315408        -3.693275508
F            -1.152361757        -0.353113301        -1.831072445
F            -1.654255487         1.969194203        -1.875364583
F            -1.962375125         0.732303339         0.510798224
F             0.241072327         1.195332443        -0.180058311
F            -0.329885175         2.589292797         1.946216547
F             0.279747115        -0.231534458         2.000015045
F            -4.355155092         0.196020070        -0.493733565
F             0.575675827         1.212365337        -3.078557229
