12
Properties=species:S:1:pos:R:3:forces:R:3 energy=-186.14917035 pbc="F F F"
Al    0.037373542999999995    1.5288643960000001    1.864376821    0.518877    0.291088    -0.792594
Al    2.6668491960000003    2.810106225    1.996016075    0.377187    0.411565    0.176097
Al    1.313494458    2.8165119809999997    -0.698930953    0.049949    0.520625    -0.539232
F    0.8628059519999999    3.055821019    2.7841313320000003    0.118047    -0.159688    0.356005
F    -1.5403236470000001    2.401686243    2.4229184950000002    -0.429305    -0.335873    0.443991
F    -1.0016457600000002    0.24697388199999998    2.91446606    -0.424967    0.176078    0.220016
F    2.197573969    0.996388585    2.034375734    0.168288    0.079836    0.070003
F    2.757613042    1.7167811720000001    -0.434514154    -0.295333    -0.548346    0.133628
F    1.154876714    2.9317688520000003    -2.5224672040000002    -0.056299    -0.095009    -0.129675
F    1.686929468    3.8886579869999998    0.8846461649999999    -0.193696    0.007043    0.164267
F    4.365784666000001    3.1536590110000002    2.594999968    0.065757    -0.052928    0.126909
F    -0.0953022    1.771452368    -0.009579594999999996    0.101495    -0.294391    -0.229415
