      12
SCF Done            -186.14917035
Al           -0.044589457         1.664056396         2.069011821
Al            2.550859196         2.650971225         1.788982075
Al            1.379493458         2.715820981        -0.688368953
F             1.030079952         3.061443019         2.903885332
F            -1.619852647         2.595696243         2.257015495
F            -0.559303760         0.061645882         2.771117060
F             1.855889969         0.905880585         1.941341734
F             2.879559042         1.763441172        -0.058526154
F             1.072151714         3.023960852        -2.448399204
F             1.707914468         4.016970987         0.663774165
F             4.149249666         3.124420011         2.495532968
F             0.029864800         1.758249368         0.133508405
