      12
SCF Done            -180.75079204
Al            0.313641772        -2.209069411        -1.795709661
Al            2.085059530        -0.460192056        -0.774815224
Al           -0.320720406         0.398962703        -1.784916283
F             3.777360488        -0.146363416         0.042572577
F            -0.093922374        -3.750927293        -2.163199036
F             1.847703238        -2.004706076        -2.342050989
F             1.594965495         0.749784739        -2.425944020
F            -1.563549222         1.744894331        -2.201757111
F            -1.000176686        -1.529611052        -1.077051369
F            -0.062762374        -1.293192709        -3.108623381
F             0.416780796         0.452642398         0.127427198
F             0.886089734        -2.247228410        -0.258034973
