12
Properties=species:S:1:pos:R:3:forces:R:3 energy=-187.11845947 pbc="F F F"
Al    1.07358118    0.014748816999999997    2.2882010729999998    0.091499    0.213563    0.06033
Al    1.2690830000000002    1.516388    -0.026486499999999996    -0.839146    0.357729    0.341071
Al    -0.398317062    0.73781075    -2.0915567729999998    0.058581    0.229728    -0.037599
F    -1.453912172    -0.758463453    -2.230787606    0.133044    -0.417458    -0.045498
F    1.647729253    -0.344626453    0.558854952    -0.176592    -0.252689    -0.111644
F    0.293956139    1.8597682899999999    -3.4292953330000002    0.017942    -0.017292    -0.010267
F    -0.33928331    2.219637753    -0.791668049    0.035852    0.313894    -0.132786
F    2.908368557    2.2500790119999996    -0.456271443    0.529991    0.014154    -0.175776
F    1.046548239    -0.049299594999999995    -1.230010754    -0.100381    -0.290127    0.115117
F    0.49885511700000007    1.807903929    1.702291039    0.137573    0.263923    0.169895
F    2.526479969    0.763054076    3.213780437    0.018758    -0.017692    -0.00784
F    0.163568675    -1.553042352    2.582162071    0.092877    -0.397733    -0.165005
