12
Properties=species:S:1:pos:R:3:forces:R:3 energy=-185.65114157 pbc="F F F"
Al    -0.426394838    1.16422216    -1.608086936    0.022032    0.952472    -0.062724
Al    -0.747703914    0.9459494529999999    1.4429806360000001    -0.004451    -0.123658    0.032001
Al    -2.8867705189999997    0.11005968899999999    -1.6768245419999999    1.545735    -2.605999    0.893749
F    -3.345952261    0.705782408    -3.454304908    -0.787711    1.534682    -1.536169
F    -1.090248157    -0.715154101    -2.129471245    0.591357    -0.391229    0.233398
F    -2.1174534869999997    1.8851032030000001    -2.216462183    -0.526522    -0.103843    -0.271561
F    -2.118542325    0.864083139    0.12356342400000003    -0.04903    0.267314    -0.007412
F    0.43295232699999997    1.274062643    -0.021557910999999985    0.120254    -0.229848    0.124609
F    -0.05950977499999999    2.712842997    1.8161391470000001    -0.08178    0.010915    -0.017142
F    0.655837115    -0.265619258    1.9782972450000003    0.050284    0.030523    0.006828
F    -4.378674692    0.44072267    -0.545803765    -1.048357    0.846587    0.765833
F    0.537812227    1.157045137    -3.158867229    0.168189    -0.187914    -0.16141
