      12
SCF Done            -166.70207361
Al           -0.394400838         1.173844160        -1.822153936
Al           -0.445364781         1.062692491         1.281886601
Al           -2.952007503         0.144305678        -1.852819809
F            -3.594627255         0.605878336        -3.605280161
F            -1.166393158        -0.614939104        -1.767857338
F            -2.114849493         1.928413189        -1.963203761
F            -2.049084177         0.784318255         0.454417309
F             0.609583416         1.209016697        -0.293608975
F            -0.321491581         2.732966004         1.984886171
F             0.387226208        -0.351950271         2.055878158
F            -4.312757567         0.377943726        -0.583979913
F             0.757948219         1.195833103        -3.232941244
