12
Properties=species:S:1:pos:R:3:forces:R:3 energy=-186.06061862 pbc="F F F"
Al    -0.31474833799999996    0.97127306    -1.752004436    -0.063549    -0.820295    0.709022
Al    -0.409481414    1.121611453    1.311319536    -0.195761    0.092794    -0.16044
Al    -2.921029619    0.5298545889999999    -1.824891142    -0.186996    0.190586    -0.064723
F    -3.361604861    0.305633908    -3.5838229079999997    0.008787    0.065227    -0.011701
F    -1.338434357    -0.622913801    -1.792569745    0.066999    -0.144965    0.30628
F    -1.852755887    2.131656703    -1.8487920830000002    0.064025    0.1943    -0.344151
F    -1.8890999249999998    0.969860239    0.222767524    -0.376251    0.440339    0.083442
F    0.856112827    0.883963543    -0.298941711    0.345136    -0.556249    0.010431
F    -0.761144975    2.744488697    2.1297510469999996    -0.491203    0.297618    0.195981
F    0.29236831500000005    -0.386448558    2.194257045    0.681436    -0.266231    -0.250521
F    -4.106296192    0.24151697    -0.47674936500000004    -0.020245    -0.077513    0.02212
F    0.181818527    1.311469437    -3.6495364290000003    0.167623    0.584389    -0.49574
