      12
SCF Done            -186.06061862
Al           -0.333003338         0.889751060        -1.816735436
Al           -0.453210414         1.098993453         1.281193536
Al           -3.032189619         0.515315589        -1.859895142
F            -3.538702861         0.347114908        -3.600344908
F            -1.454260357        -0.631468801        -1.690581745
F            -1.845233887         2.029387703        -2.042090083
F            -2.088331925         0.965922239         0.450953524
F             0.669408827         0.932197543        -0.288329711
F            -0.557116975         2.721858697         2.130070047
F             0.607559315        -0.270080558         1.909345045
F            -4.270667192         0.183185970        -0.580265365
F             0.704632527         1.442530437        -3.237645429
