12
Properties=species:S:1:pos:R:3:forces:R:3 energy=-186.28769152 pbc="F F F"
Al    -0.44079865700000004    1.933656596    2.0352195209999997    -0.986184    1.330533    -0.229728
Al    2.191392096    2.897548025    1.865563575    -1.104192    0.697028    -0.190455
Al    1.337343658    2.729103581    -0.7030176530000001    -0.867303    0.588776    -0.452085
F    0.599620352    3.402229519    2.732395832    0.380537    -0.166231    -0.157531
F    -1.913325947    2.898021543    1.6291160949999997    0.857773    -0.614413    0.002801
F    -0.8286804600000001    0.298759782    2.85380126    -0.02693    -0.524116    0.176899
F    1.5261463690000001    1.119285585    2.063700234    0.106958    -0.397671    0.006648
F    2.907941342    1.988552872    0.105192546    0.624443    -0.387961    0.18375
F    1.297777714    2.976143952    -2.4952758040000003    0.119813    -0.126702    0.385707
F    1.561039868    4.1636515869999995    0.543090265    0.211739    -0.425767    0.096711
F    3.768862966    3.417331611    2.652779168    0.530165    0.073295    0.211571
F    -0.08326539999999999    1.8599203679999998    0.077486505    0.153181    -0.046769    -0.034287
