12
Properties=species:S:1:pos:R:3:forces:R:3 energy=-186.30619714 pbc="F F F"
Al    -1.755947661    2.52218762    -1.2197052910000001    -0.205555    -0.214849    -0.227166
Al    -0.720959355    0.0073974060000000005    -2.4958883739999997    0.027558    0.024966    0.075107
Al    -2.0163187760000003    -0.354537518    -0.31286323699999996    0.071895    0.033987    0.026456
F    -0.974980541    3.543872636    0.11055174300000004    0.14873    -0.090315    0.118795
F    -2.666276647    3.215248993    -2.750856192    0.008347    -0.095589    -0.010118
F    -1.39281228    -1.673672627    -1.724349361    -0.023497    -0.007036    -0.022717
F    -2.307781362    1.4478036829999998    0.257784362    -0.006039    -0.002086    -0.000754
F    -3.428225163    -1.248299832    0.514791253    -0.11781    0.172885    0.114281
F    0.781630798    -0.378974341    -3.5388085040000004    0.067482    0.210586    -0.089042
F    -0.5525289250000001    1.892508114    -2.567668031    -0.00102    -0.001065    -0.006261
F    -2.6559255569999998    0.438116151    -2.0516954280000004    0.011847    0.028985    0.016172
F    -0.12807556799999997    0.16391883899999998    -0.567776608    0.018061    -0.060469    0.005248
