      12
SCF Done            -167.57731856
Al           -1.722811589         2.528929685        -1.256065206
Al           -0.515738370        -0.000034596        -2.340271356
Al           -2.192192786        -0.341134512        -0.500683249
F            -0.732153480         3.593279711        -0.155904173
F            -3.038768570         3.139460066        -2.342118119
F            -1.387810288        -1.672654637        -1.729837354
F            -2.534605280         1.445438710         0.056981385
F            -3.290649330        -1.213924746         0.646784164
F             0.643816690        -0.413398260        -3.670539400
F            -0.331905693         1.893611122        -2.360059922
F            -2.439727557         0.482105151        -2.288931428
F            -0.287628563         0.131455780        -0.392697588
