12
Properties=species:S:1:pos:R:3:forces:R:3 energy=-186.53506704 pbc="F F F"
Al    -0.18676163799999998    0.9974797599999999    -2.085158136    0.115398    -0.143023    -0.071502
Al    -0.619962714    1.008890053    1.104778836    0.013198    -0.139353    -0.169025
Al    -2.906503519    0.5673390890000001    -1.441663742    -0.020515    0.076838    0.15787
F    -3.4283758609999997    0.562069208    -3.279998108    -0.063912    0.006275    -0.193542
F    -1.310176357    -0.553402301    -1.8405280450000001    0.105966    -0.065563    -0.026176
F    -1.729825287    2.1261712029999997    -1.723920583    -0.110143    0.134703    -0.004322
F    -2.260485525    0.532418539    0.518799224    -0.230131    -0.102245    -0.113372
F    0.575340327    0.8536452430000001    -0.371155311    0.015179    -0.000813    -0.017182
F    -0.455218375    2.837329197    1.4832327470000002    -0.02083    0.556946    0.150864
F    0.223820315    -0.251115858    2.190941445    0.245095    -0.310507    0.268191
F    -4.434227691999999    0.25529146999999996    -0.47315556499999994    -0.055856    -0.025218    0.033248
F    0.921105627    1.275246537    -3.4214008290000004    0.006552    0.011958    -0.015053
