      12
SCF Done            -186.53506704
Al           -0.350290638         0.969739760        -1.818261136
Al           -0.443953714         1.056162053         1.282010836
Al           -3.031330519         0.511340089        -1.859819742
F            -3.582021861         0.547554208        -3.604168108
F            -1.422603357        -0.576459301        -1.965877045
F            -1.898941287         2.076412203        -1.768740583
F            -1.979095525         0.460473539         0.460593224
F             0.626422327         1.131101243        -0.292123311
F            -0.477819375         2.831820197         1.777757747
F             0.487169315        -0.189905858         2.258031445
F            -4.266917692         0.165839470        -0.579934565
F             0.749640627         1.234271537        -3.233673829
