      12
SCF Done            -168.15513026
Al           -0.350290638         0.969739760        -1.818261136
Al           -0.443953581         1.056162091         1.282010801
Al           -3.031330503         0.511340078        -1.859820009
F            -3.582021855         0.547554136        -3.604168361
F            -1.422603358        -0.576459304        -1.965877138
F            -1.898941293         2.076412189        -1.768740761
F            -1.979095377         0.460473655         0.460593109
F             0.626422416         1.131101297        -0.292123375
F            -0.477819181         2.831820204         1.777757771
F             0.487169408        -0.189905871         2.258031358
F            -4.266917567         0.165839526        -0.579934713
F             0.749640619         1.234271503        -3.233673844
