12
Properties=species:S:1:pos:R:3:forces:R:3 energy=-186.25013121 pbc="F F F"
Al    -1.6905023609999998    2.52254272    -1.316606291    -0.324126    -0.33046    -0.35666
Al    -0.31741485500000005    -0.027820993999999998    -2.177024374    -0.002448    0.042769    0.158687
Al    -2.369658676    -0.312814818    -0.662518937    0.147074    0.073191    -0.005385
F    -0.44926604100000006    3.602044136    -0.449501057    0.235812    -0.124443    0.191826
F    -3.410988347    3.047503993    -1.9587494920000001    0.014284    -0.143972    -0.013678
F    -1.38757868    -1.670364427    -1.740448561    -0.034223    -0.00993    -0.033029
F    -2.7741085620000003    1.461557483    -0.136455738    -0.008826    -0.007214    0.001836
F    -3.164213363    -1.187147932    0.7855212530000001    -0.201442    0.238649    0.194036
F    0.521730998    -0.34130884100000003    -3.8172535040000004    0.12437    0.304941    -0.16348
F    -0.11027892499999997    1.8713867139999998    -2.152737531    0.002136    -0.004983    -0.010192
F    -2.235263257    0.526030651    -2.4973455280000003    0.0183    0.049389    0.025836
F    -0.452821668    0.082646139    -0.19889220800000001    0.029089    -0.087937    0.010204
