      12
SCF Done            -186.25013121
Al           -1.733897361         2.513713720        -1.268989291
Al           -0.507927855        -0.000300994        -2.336692374
Al           -2.187792676        -0.342094818        -0.493361937
F            -0.719514041         3.547058136        -0.152956057
F            -3.049550347         3.121043993        -2.355358492
F            -1.393074680        -1.671482427        -1.734417561
F            -2.538915562         1.443327483         0.058846262
F            -3.312332363        -1.169345932         0.668975253
F             0.655055998        -0.362120841        -3.684474504
F            -0.330171925         1.892729714        -2.364827531
F            -2.432145257         0.485971651        -2.281304528
F            -0.280124668         0.117784139        -0.388394208
