12
Properties=species:S:1:pos:R:3:forces:R:3 energy=-184.74789261 pbc="F F F"
Al    -0.23673943800000002    0.97611106    -1.7484324359999999    4.571441    1.065592    4.069695
Al    -0.431988814    1.081058853    1.291410136    0.638204    0.144247    0.331057
Al    -2.726821519    -0.20780201100000006    -1.784261042    6.778187    1.502549    1.974453
F    -3.5905787609999997    0.379598808    -3.732740708    -1.581511    -0.417508    -3.969834
F    -1.8037733569999999    -0.263147601    -1.834770945    -2.32643    -0.291172    -0.137897
F    -1.8020813869999999    2.497626403    -1.922444583    -2.237989    -0.700395    -0.130092
F    -2.059005725    0.724623739    0.445380624    -0.772016    -0.172807    -0.312519
F    0.552321827    1.261819143    -0.386062011    -1.890951    -0.485812    -4.044731
F    -0.30387377499999996    2.726380997    1.986433147    -0.033458    -0.393195    -0.143201
F    0.361948015    -0.34721695799999996    2.047526945    -0.191656    0.33881    -0.157159
F    -4.3572362920000005    0.26385577    -0.5195033649999999    -2.367696    -0.474487    1.951262
F    0.725676727    1.2572648370000001    -3.216402729    -0.586126    -0.115821    0.568964
