12
Properties=species:S:1:pos:R:3:forces:R:3 energy=-187.23436804 pbc="F F F"
Al    0.33627919300000003    -0.656951958    1.791431739    0.234278    0.440832    -0.200864
Al    2.381307965    -1.6143450719999999    -0.631119097    -0.111956    -0.434479    -0.083594
Al    -0.899993381    -1.9519803580000001    -0.944944143    -0.162428    -0.033318    0.170533
F    3.396094907    -0.326396193    -1.35575438    0.148872    0.175666    -0.075616
F    -1.9081562539999999    -0.628142088    -1.7279161969999999    -0.009087    0.025787    -0.027054
F    2.884785795    -3.389103894    -0.460778443    -0.029512    0.19319    -0.011502
F    -1.194674966    -3.725266002    -1.13065512    0.002233    -0.014342    -0.018785
F    2.0198623970000003    -1.128469993    1.1001754019999999    -0.062435    0.050955    0.135883
F    0.792931164    -1.547740682    -1.527356065    0.185433    0.025777    -0.021113
F    0.276216152    -1.3655841629999999    3.468551889    -0.042119    -0.080334    0.208898
F    0.03531457100000002    1.152148899    1.378400136    -0.017958    -0.231757    0.08778
F    -0.879977068    -1.684539983    0.869144614    -0.135321    -0.117978    -0.164569
