12
Properties=species:S:1:pos:R:3:forces:R:3 energy=-186.20673111 pbc="F F F"
Al    -1.630450261    2.62080442    -1.154859291    -0.323727    -0.27552    -0.346109
Al    -0.5885243550000001    -0.035207794    -2.387947374    0.121863    -0.019295    -0.365659
Al    -2.240371976    -0.37130091800000004    -0.575360837    -0.340551    -0.113383    0.14175
F    -0.35160354099999996    3.154562636    0.109550343    0.864492    0.392644    0.860635
F    -2.775026247    3.906905993    -1.959463592    -0.481873    0.16756    -0.40807
F    -0.85840048    -1.725092027    -1.257098961    0.124059    -0.76397    -0.028597
F    -2.992446962    1.430483083    -0.420003438    -0.38323    0.004043    0.224865
F    -3.168920763    -1.2879876319999999    0.692197253    -0.012176    -0.091914    0.062306
F    0.714930398    -0.49775934099999997    -3.569586504    0.07622    -0.073928    -0.034691
F    -0.845427925    1.867325914    -2.7759470310000003    0.177141    0.118054    -0.390037
F    -2.580092157    -0.192229849    -2.541884228    -0.244976    0.285067    -0.170389
F    -0.508358368    0.697541239    -0.48888740799999997    0.422757    0.370643    0.453997
