      12
SCF Done            -165.70142950
Al           -1.666405189         2.533653485        -1.203785206
Al           -0.551554370         0.022011204        -2.379002356
Al           -2.237957986        -0.321112912        -0.528497849
F            -0.469264480         3.286649711         0.026815427
F            -2.936775170         3.434229066        -2.194512519
F            -1.119488488        -1.689011037        -1.488342954
F            -2.844982880         1.452316110        -0.118415415
F            -3.181488930        -1.348678546         0.631368164
F             0.665104290        -0.566031260        -3.589531600
F            -0.538506893         1.921602922        -2.649331922
F            -2.522764157         0.277046151        -2.402626228
F            -0.421266363         0.561490180        -0.434746388
