12
Properties=species:S:1:pos:R:3:forces:R:3 energy=-179.28356510 pbc="F F F"
Al    -0.160313657    1.5933723960000001    1.706435521    7.46287    4.208691    -20.958051
Al    2.830572496    2.677434225    1.9254013749999999    -0.093525    -0.000543    1.143665
Al    1.056251058    2.540293981    -0.680728053    -2.781891    -1.992191    4.6538
F    0.9090075519999999    2.492120119    2.485760032    0.100098    -0.942582    -0.221722
F    -1.600047147    2.746732143    2.237726095    -0.080382    -0.169822    0.769197
F    -0.37793005999999996    0.09607798199999999    2.74545326    0.140176    0.208294    0.811981
F    1.4785517689999998    1.156952785    2.122665434    -4.413464    0.795634    0.676257
F    2.676421142    2.110791872    -0.018857854000000007    -0.79319    0.65002    -1.183122
F    1.1428747140000002    3.0765431519999997    -2.432852404    0.331494    0.132909    0.410394
F    1.756775668    3.678450587    0.502357665    -0.439689    -0.74736    -1.580755
F    4.596368566    3.291689011    2.6486389679999998    0.941745    0.526348    0.457587
F    0.1533022    1.924212168    0.6287497049999999    -0.374241    -2.6694    15.020768
