      12
SCF Done            -179.28356503
Al           -0.031866657         1.567516396         1.742573521
Al            2.578190496         2.591316225         1.870374375
Al            1.249128058         2.610066981        -0.606652053
F             1.014400552         2.992692119         2.798768032
F            -1.479841147         2.614813143         2.192705095
F            -0.442093060         0.089144982         2.765782260
F             1.483765769         0.899568785         2.027895434
F             2.885610142         1.934275872        -0.182848854
F             1.142713714         3.051366152        -2.340693404
F             1.675695668         3.983278587         0.464275665
F             4.218280566         3.178666011         2.520351968
F             0.154638200         1.880050168         0.607642705
