12
Properties=species:S:1:pos:R:3:forces:R:3 energy=-187.05937155 pbc="F F F"
Al    0.274922993    -0.608220158    1.727829439    0.455867    0.025453    -0.028508
Al    2.476240565    -1.684602572    -0.35205739699999994    -0.600894    -0.225115    -0.631987
Al    -0.7174899809999999    -1.886809558    -1.146699243    -0.391434    0.272605    0.687203
F    3.5595604069999998    -0.474992093    -1.3945051800000001    0.234625    0.222057    0.282112
F    -1.980195454    -0.558283188    -1.748165797    0.094413    0.092286    -0.384557
F    2.641197395    -3.566685494    -0.570133243    0.200932    -0.135793    0.239497
F    -1.4280865660000002    -3.668760002    -0.9639662200000001    0.198777    -0.217058    -0.199986
F    1.868410597    -1.6312016930000002    1.4322225020000001    0.007711    0.190594    -0.095125
F    1.006280764    -1.4611360820000001    -1.489871465    0.005807    -0.018739    -0.010127
F    0.159055652    -1.131484363    3.4799455889999997    -0.188506    -0.034015    0.034149
F    0.26800087100000003    1.145717799    1.245493936    0.039655    0.018606    -0.005137
F    -0.9293612680000001    -1.348245983    0.6064642140000001    -0.056952    -0.190882    0.112467
