12
Properties=species:S:1:pos:R:3:forces:R:3 energy=-185.76900684 pbc="F F F"
Al    0.48858117199999995    -2.2625798109999997    -2.276954961    0.080409    0.069921    -0.134084
Al    1.94925393    -0.554927456    -0.5997776239999999    -0.047983    -0.022246    0.058323
Al    -0.441654206    0.294706303    -1.571192983    -0.026972    -0.034193    0.076899
F    3.736495088    -0.20753151600000003    -0.246421923    0.025469    0.00583    -0.027518
F    -0.40644297399999996    -4.035376192999999    -1.674340536    -0.045846    -0.058285    0.059358
F    2.291021038    -1.7440443760000002    -2.365628189    -0.005132    0.004415    -0.001459
F    1.3899816950000001    0.5366846390000001    -2.04969882    0.001905    0.008403    0.004158
F    -1.405610222    1.639025731    -2.441891111    0.00725    0.015065    -0.039829
F    -1.017531786    -1.3908828519999998    -1.1096159689999998    -0.001041    0.009649    -0.001602
F    -0.133861974    -0.8709958090000001    -3.364357881    0.006166    -0.00012    0.003427
F    0.42143209600000003    0.460480498    0.224791898    -0.00175    -0.00473    0.000402
F    1.024482734    -2.11117701    -0.269293173    0.007527    0.006292    0.001926
