      12
SCF Done            -185.76900684
Al            0.294497172        -2.323256811        -1.868248961
Al            2.025762930        -0.543201456        -0.788078624
Al           -0.345211206         0.306580303        -1.780307983
F             3.635280088        -0.177459516        -0.053617923
F            -0.188398974        -4.037596193        -2.182828536
F             2.117942038        -1.805433376        -2.294286189
F             1.516264695         0.645293639        -2.243640820
F            -1.471832222         1.655177731        -2.200189111
F            -1.130901786        -1.285808852        -1.004895969
F            -0.118556974        -1.002880809        -3.231241881
F             0.495767096         0.403093498        -0.016317102
F             1.069582734        -2.074020010        -0.082889173
