12
Properties=species:S:1:pos:R:3:forces:R:3 energy=-183.87120559 pbc="F F F"
Al    -1.5635852609999998    2.83238222    -1.4546024910000002    8.032609    -4.152888    -6.849802
Al    -0.591512155    -0.209301594    -2.2622037739999996    -0.255564    2.289474    0.038954
Al    -2.2550153760000002    -0.06454111800000001    -0.37323183699999996    1.280117    -1.427914    -1.655284
F    -0.893422141    3.461426436    -0.41470145700000005    -0.074368    0.400997    0.590804
F    -2.6695998469999997    3.032209393    -2.1271229920000003    -0.678537    0.179543    0.046665
F    -1.3019838799999999    -1.8172090269999999    -1.842318761    -0.386084    0.013157    0.516299
F    -2.529699362    1.154049883    0.05748656199999999    -1.158629    -0.183083    1.720774
F    -3.279229963    -1.320164632    0.634648453    -0.064761    0.437707    0.124231
F    0.707051798    -0.580078741    -3.743327104    0.054882    -0.073802    -0.028402
F    -0.675645325    2.369417714    -2.0724114310000004    -5.640312    3.101575    4.389751
F    -2.445288757    0.486605551    -2.299944228    -0.609016    -0.345844    0.441112
F    -0.33619876800000004    0.157281839    -0.436950208    -0.500335    -0.238922    0.664897
