12
Properties=species:S:1:pos:R:3:forces:R:3 energy=-187.23547393 pbc="F F F"
Al    0.20367029300000003    -0.6340563579999999    1.789038539    -0.089933    -0.002328    -0.020157
Al    2.370563765    -1.851532972    -0.6532439969999999    0.048528    -0.04212    -0.066888
Al    -0.797999981    -1.782054158    -0.873957543    0.029075    0.047859    0.084873
F    3.534045407    -0.688832193    -1.4445772799999999    0.03538    -0.050463    -0.03172
F    -1.454762154    -0.24796068800000004    -1.7013529969999999    0.018346    0.053419    0.037566
F    2.910597495    -3.582819094    -0.738047643    0.052735    0.020737    -0.040618
F    -0.874846266    -3.631077602    -0.69687452    0.035961    -0.02565    0.052608
F    1.676536697    -1.509647493    1.047151202    -0.018718    -0.007534    -0.009958
F    0.8622903639999999    -1.483680682    -1.576331165    2.3e-05    2.7e-05    0.000399
F    -0.236213348    -1.0472867629999998    3.5062742890000003    -0.055687    -0.001894    -0.007186
F    0.178831071    1.107993199    1.2479496360000002    -0.035019    -3e-05    -0.004888
F    -1.124840968    -1.5068822830000002    0.914249314    -0.020692    0.007975    0.005969
