      12
SCF Done            -187.23547393
Al            0.335904293        -0.599491358         1.738414539
Al            2.357731765        -1.794889972        -0.530457997
Al           -0.889252981        -1.824112158        -0.979369543
F             3.499676407        -0.522065193        -1.133882280
F            -1.818779154        -0.538295688        -1.859625997
F             2.769263495        -3.562128094        -0.515986643
F            -1.202115266        -3.612725602        -1.036852520
F             1.878958697        -1.417840493         1.194322202
F             0.833694364        -1.508468682        -1.488999165
F             0.075956652        -1.172784763         3.438467289
F             0.384323071         1.134874199         1.195391636
F            -0.982883968        -1.449328283         0.805227314
