12
Properties=species:S:1:pos:R:3:forces:R:3 energy=-186.54066269 pbc="F F F"
Al    -0.404575638    1.24178306    -1.817833336    0.039309    -0.148928    0.00144
Al    -0.44459781400000004    1.0588908529999999    1.294623636    -0.004906    0.018247    0.000451
Al    -2.923697219    -0.011937111000000056    -1.857114842    -0.042124    0.341432    0.022285
F    -3.626770361    0.7489539080000001    -3.670673108    0.027423    -0.196491    -0.045195
F    -1.059733657    -0.652638001    -1.7389370450000001    -0.071988    0.020858    -0.044172
F    -2.200636687    1.866339103    -1.9936629829999999    0.051732    0.065986    0.041094
F    -2.0562343249999997    0.817654339    0.465952424    0.010004    -0.044948    0.00073
F    0.618197827    1.181306343    -0.281872811    -0.006463    0.038935    0.002654
F    -0.336341075    2.741467197    1.9727953470000001    0.011028    -0.001477    0.001777
F    0.393963615    -0.363094758    2.0478484449999996    -0.009985    -0.006362    -0.001916
F    -4.322291592    0.46575867    -0.5309688650000001    -0.000482    -0.120074    0.026132
F    0.762875027    1.171489837    -3.2373788290000003    -0.003546    0.03282    -0.005281
