12
Properties=species:S:1:pos:R:3:forces:R:3 energy=-187.34384333 pbc="F F F"
Al    1.22460468    -0.036331582999999994    2.318087973    0.021827    -0.132391    -0.262617
Al    1.428156    1.331452    -0.110477    0.044472    0.041778    -0.00805
Al    -0.381553262    0.80787445    -2.174697673    -0.079282    0.078419    0.273
F    -1.914629272    -0.105447453    -1.699092906    -0.278242    -0.198462    0.055486
F    2.470365753    -0.04992475299999999    0.835272052    0.148326    -0.108391    -0.006538
F    0.10139213899999999    1.28392949    -3.9426126330000004    0.19451    0.216424    -0.46467
F    -0.05959601000000003    2.294260153    -0.975595549    -0.098536    0.155166    -0.002472
F    2.715079557    2.540453512    -0.343372443    -0.008913    -0.008373    0.001613
F    1.118696239    -0.09854089499999999    -1.389966554    0.181639    -0.2379    -0.043906
F    0.25345951699999997    1.367150829    1.437604239    -0.217049    0.204634    0.050316
F    2.047053269    0.713963476    3.849762437    0.308731    0.256341    0.373611
F    0.170989775    -1.553078352    2.310604371    -0.217481    -0.267245    0.034227
