      12
SCF Done            -187.34384333
Al            1.324162680         0.000507417         2.421881973
Al            1.276784000         1.189243000        -0.083083000
Al           -0.360629262         0.884223450        -2.300294673
F            -1.859005272        -0.150112453        -2.119123906
F             2.252324753        -0.259165753         0.784805052
F             0.195497139         1.650481490        -3.874881633
F            -0.264960010         2.105733153        -0.848503549
F             2.587876557         2.420946512        -0.320355443
F             1.119082239        -0.074205895        -1.519333554
F             0.301800517         1.388592829         1.558153239
F             2.397998269         0.765513476         3.701490437
F             0.209005775        -1.420435352         2.713690371
