12
-185.77729729
Al		0.275607011		-2.327739986		-1.827069868
Al		2.034420564		-0.541010928		-0.807586488
Al		-0.334978678		0.308872954		-1.801979211
F		3.624792576		-0.180096299		-0.031751427
F		-0.166741663		-4.031808974		-2.229486476
F		2.0989135		-1.807990475		-2.290953439
F		1.529247218		0.65192546		-2.267544266
F		-1.483002033		1.652027297		-2.175397666
F		-1.139306719		-1.274229625		-0.991660331
F		-0.111696504		-1.015062979		-3.218705279
F		0.501637018		0.392758829		-0.040499328
F		1.071303293		-2.067157112		-0.063908488
