12
-185.77729729
Al		0.275637026		-2.327624361		-1.827042563
Al		2.034312654		-0.541035418		-0.807639128
Al		-0.334900783		0.308781819		-1.801953876
F		3.624667686		-0.180124639		-0.031812352
F		-0.166706928		-4.031675159		-2.229454876
F		2.09810114		-1.80652786		-2.292115304
F		1.529155573		0.65027589		-2.268735746
F		-1.482911883		1.651921822		-2.175368341
F		-1.138042579		-1.273951845		-0.990087471
F		-0.109712094		-1.014603544		-3.218693394
F		0.500825103		0.390927609		-0.040129838
F		1.069770663		-2.065876152		-0.063509378
