12
-185.77729729
Al		0.275649032		-2.327578111		-1.827031641
Al		2.03426949		-0.541045214		-0.807660184
Al		-0.334869625		0.308745365		-1.801943742
F		3.62461773		-0.180135975		-0.031836722
F		-0.166693034		-4.031621633		-2.229442236
F		2.097776196		-1.805942814		-2.29258005
F		1.529118915		0.649616062		-2.269212338
F		-1.482875823		1.651879632		-2.175356611
F		-1.137536923		-1.273840733		-0.989458327
F		-0.10891833		-1.01441977		-3.21868864
F		0.500500337		0.390195121		-0.039982042
F		1.069157611		-2.065363768		-0.063349734
