12
-185.77729729
Al		0.275661038		-2.327531861		-1.827020719
Al		2.034226326		-0.54105501		-0.80768124
Al		-0.334838467		0.308708911		-1.801933608
F		3.624567774		-0.180147311		-0.031861092
F		-0.16667914		-4.031568107		-2.229429596
F		2.097451252		-1.805357768		-2.293044796
F		1.529082257		0.648956234		-2.26968893
F		-1.482839763		1.651837442		-2.175344881
F		-1.137031267		-1.273729621		-0.988829183
F		-0.108124566		-1.014235996		-3.218683886
F		0.500175571		0.389462633		-0.039834246
F		1.068544559		-2.064851384		-0.06319009
