12
-185.77729729
Al		0.275673044		-2.327485611		-1.827009797
Al		2.034183162		-0.541064806		-0.807702296
Al		-0.334807309		0.308672457		-1.801923474
F		3.624517818		-0.180158647		-0.031885462
F		-0.166665246		-4.031514581		-2.229416956
F		2.097126308		-1.804772722		-2.293509542
F		1.529045599		0.648296406		-2.270165522
F		-1.482803703		1.651795252		-2.175333151
F		-1.136525611		-1.273618509		-0.988200039
F		-0.107330802		-1.014052222		-3.218679132
F		0.499850805		0.388730145		-0.03968645
F		1.067931507		-2.064339		-0.063030446
