12
-185.77729729
Al		0.27568505		-2.327439361		-1.826998875
Al		2.034139998		-0.541074602		-0.807723352
Al		-0.334776151		0.308636003		-1.80191334
F		3.624467862		-0.180169983		-0.031909832
F		-0.166651352		-4.031461055		-2.229404316
F		2.096801364		-1.804187676		-2.293974288
F		1.529008941		0.647636578		-2.270642114
F		-1.482767643		1.651753062		-2.175321421
F		-1.136019955		-1.273507397		-0.987570895
F		-0.106537038		-1.013868448		-3.218674378
F		0.499526039		0.387997657		-0.039538654
F		1.067318455		-2.063826616		-0.062870802
