12
-185.77729729
Al		0.275691053		-2.327416236		-1.826993414
Al		2.034118416		-0.5410795		-0.80773388
Al		-0.334760572		0.308617776		-1.801908273
F		3.624442884		-0.180175651		-0.031922017
F		-0.166644405		-4.031434292		-2.229397996
F		2.096638892		-1.803895153		-2.294206661
F		1.528990612		0.647306664		-2.27088041
F		-1.482749613		1.651731967		-2.175315556
F		-1.135767127		-1.273451841		-0.987256323
F		-0.106140156		-1.013776561		-3.218672001
F		0.499363656		0.387631413		-0.039464756
F		1.067011929		-2.063570424		-0.06279098
