12
-185.77729729
Al		0.275697056		-2.327393111		-1.826987953
Al		2.034096834		-0.541084398		-0.807744408
Al		-0.334744993		0.308599549		-1.801903206
F		3.624417906		-0.180181319		-0.031934202
F		-0.166637458		-4.031407529		-2.229391676
F		2.09647642		-1.80360263		-2.294439034
F		1.528972283		0.64697675		-2.271118706
F		-1.482731583		1.651710872		-2.175309691
F		-1.135514299		-1.273396285		-0.986941751
F		-0.105743274		-1.013684674		-3.218669624
F		0.499201273		0.387265169		-0.039390858
F		1.066705403		-2.063314232		-0.062711158
