12
-185.77729729
Al		0.275703059		-2.327369986		-1.826982492
Al		2.034075252		-0.541089296		-0.807754936
Al		-0.334729414		0.308581322		-1.801898139
F		3.624392928		-0.180186987		-0.031946387
F		-0.166630511		-4.031380766		-2.229385356
F		2.096313948		-1.803310107		-2.294671407
F		1.528953954		0.646646836		-2.271357002
F		-1.482713553		1.651689777		-2.175303826
F		-1.135261471		-1.273340729		-0.986627179
F		-0.105346392		-1.013592787		-3.218667247
F		0.49903889		0.386898925		-0.03931696
F		1.066398877		-2.06305804		-0.062631336
