12
-185.77729729
Al		0.27574508		-2.327208111		-1.826944265
Al		2.033924178		-0.541123582		-0.807828632
Al		-0.334620361		0.308453733		-1.80186267
F		3.624218082		-0.180226663		-0.032031682
F		-0.166581882		-4.031193425		-2.229341116
F		2.095176644		-1.801262446		-2.296298018
F		1.528825651		0.644337438		-2.273025074
F		-1.482587343		1.651542112		-2.175262771
F		-1.133491675		-1.272951837		-0.984425175
F		-0.102568218		-1.012949578		-3.218650608
F		0.497902209		0.384335217		-0.038799674
F		1.064253195		-2.061264696		-0.062072582
