12
-185.77729729
Al		0.275552984		-2.327948111		-1.827119017
Al		2.034614802		-0.540966846		-0.807491736
Al		-0.335118889		0.309036997		-1.802024814
F		3.625017378		-0.180045287		-0.031641762
F		-0.166804186		-4.032049841		-2.229543356
F		2.100375748		-1.810623182		-2.288862082
F		1.529412179		0.654894686		-2.265399602
F		-1.483164303		1.652217152		-2.175450451
F		-1.141582171		-1.274729629		-0.994491479
F		-0.115268442		-1.015889962		-3.218726672
F		0.503098465		0.396055025		-0.04116441
F		1.074062027		-2.06946284		-0.064626886
