12
-185.77729729
Al		0.275781098		-2.327069361		-1.826911499
Al		2.033794686		-0.54115297		-0.8078918
Al		-0.334526887		0.308344371		-1.801832268
F		3.624068214		-0.180260671		-0.032104792
F		-0.1665402		-4.031032847		-2.229303196
F		2.094201812		-1.799507308		-2.297692256
F		1.528715677		0.642357954		-2.27445485
F		-1.482479163		1.651415542		-2.175227581
F		-1.131974707		-1.272618501		-0.982537743
F		-0.100186926		-1.012398256		-3.218636346
F		0.496927911		0.382137753		-0.038356286
F		1.062414039		-2.059727544		-0.06159365
