12
-185.77729729
Al		0.275787101		-2.327046236		-1.826906038
Al		2.033773104		-0.541157868		-0.807902328
Al		-0.334511308		0.308326144		-1.801827201
F		3.624043236		-0.180266339		-0.032116977
F		-0.166533253		-4.031006084		-2.229296876
F		2.09403934		-1.799214785		-2.297924629
F		1.528697348		0.64202804		-2.274693146
F		-1.482461133		1.651394447		-2.175221716
F		-1.131721879		-1.272562945		-0.982223171
F		-0.099790044		-1.012306369		-3.218633969
F		0.496765528		0.381771509		-0.038282388
F		1.062107513		-2.059471352		-0.061513828
