12
-185.77729729
Al		0.275793104		-2.327023111		-1.826900577
Al		2.033751522		-0.541162766		-0.807912856
Al		-0.334495729		0.308307917		-1.801822134
F		3.624018258		-0.180272007		-0.032129162
F		-0.166526306		-4.030979321		-2.229290556
F		2.093876868		-1.798922262		-2.298157002
F		1.528679019		0.641698126		-2.274931442
F		-1.482443103		1.651373352		-2.175215851
F		-1.131469051		-1.272507389		-0.981908599
F		-0.099393162		-1.012214482		-3.218631592
F		0.496603145		0.381405265		-0.03820849
F		1.061800987		-2.05921516		-0.061434006
