12
-185.77729729
Al		0.275919167		-2.326537486		-1.826785896
Al		2.0332983		-0.541265624		-0.808133944
Al		-0.33416857		0.30792515		-1.801715727
F		3.62349372		-0.180391035		-0.032385047
F		-0.166380419		-4.030417298		-2.229157836
F		2.090464956		-1.792779279		-2.303036835
F		1.52829411		0.634769932		-2.279935658
F		-1.482064473		1.650930357		-2.175092686
F		-1.126159663		-1.271340713		-0.975302587
F		-0.09105864		-1.010284855		-3.218581675
F		0.493193102		0.373714141		-0.036656632
F		1.055363941		-2.053835128		-0.059757744
