12
-185.77729729
Al		0.275937176		-2.326468111		-1.826769513
Al		2.033233554		-0.541280318		-0.808165528
Al		-0.334121833		0.307870469		-1.801700526
F		3.623418786		-0.180408039		-0.032421602
F		-0.166359578		-4.030337009		-2.229138876
F		2.08997754		-1.79190171		-2.303733954
F		1.528239123		0.63378019		-2.280650546
F		-1.482010383		1.650867072		-2.175075091
F		-1.125401179		-1.271174045		-0.974358871
F		-0.089867994		-1.010009194		-3.218574544
F		0.492705953		0.372615409		-0.036434938
F		1.054444363		-2.053066552		-0.059518278
