12
-185.77729729
Al		0.275949182		-2.326421861		-1.826758591
Al		2.03319039		-0.541290114		-0.808186584
Al		-0.334090675		0.307834015		-1.801690392
F		3.62336883		-0.180419375		-0.032445972
F		-0.166345684		-4.030283483		-2.229126236
F		2.089652596		-1.791316664		-2.3041987
F		1.528202465		0.633120362		-2.281127138
F		-1.481974323		1.650824882		-2.175063361
F		-1.124895523		-1.271062933		-0.973729727
F		-0.08907423		-1.00982542		-3.21856979
F		0.492381187		0.371882921		-0.036287142
F		1.053831311		-2.052554168		-0.059358634
