12
-185.77729729
Al		0.276003209		-2.326213736		-1.826709442
Al		2.032996152		-0.541334196		-0.808281336
Al		-0.333950464		0.307669972		-1.801644789
F		3.623144028		-0.180470387		-0.032555637
F		-0.166283161		-4.030042616		-2.229069356
F		2.088190348		-1.788683957		-2.306290057
F		1.528037504		0.630151136		-2.283271802
F		-1.481812053		1.650635027		-2.175010576
F		-1.122620071		-1.270562929		-0.970898579
F		-0.085502292		-1.008998437		-3.218548397
F		0.49091974		0.368586725		-0.03562206
F		1.051072577		-2.05024844		-0.058640236
