12
-185.77729729
Al		0.275576996		-2.327855611		-1.827097173
Al		2.034528474		-0.540986438		-0.807533848
Al		-0.335056573		0.308964089		-1.802004546
F		3.624917466		-0.180067959		-0.031690502
F		-0.166776398		-4.031942789		-2.229518076
F		2.09972586		-1.80945309		-2.289791574
F		1.529338863		0.65357503		-2.266352786
F		-1.483092183		1.652132772		-2.175426991
F		-1.140570859		-1.274507405		-0.993233191
F		-0.113680914		-1.015522414		-3.218717164
F		0.502448933		0.394590049		-0.040868818
F		1.072835923		-2.068438072		-0.064307598
