12
-185.77729729
Al		0.276009212		-2.326190611		-1.826703981
Al		2.03297457		-0.541339094		-0.808291864
Al		-0.333934885		0.307651745		-1.801639722
F		3.62311905		-0.180476055		-0.032567822
F		-0.166276214		-4.030015853		-2.229063036
F		2.088027876		-1.788391434		-2.30652243
F		1.528019175		0.629821222		-2.283510098
F		-1.481794023		1.650613932		-2.175004711
F		-1.122367243		-1.270507373		-0.970584007
F		-0.08510541		-1.00890655		-3.21854602
F		0.490757357		0.368220481		-0.035548162
F		1.050766051		-2.049992248		-0.058560414
