12
-185.77729729
Al		0.276057236		-2.326005611		-1.826660293
Al		2.032801914		-0.541378278		-0.808376088
Al		-0.333810253		0.307505929		-1.801599186
F		3.622919226		-0.180521399		-0.032665302
F		-0.166220638		-4.029801749		-2.229012476
F		2.0867281		-1.78605125		-2.308381414
F		1.527872543		0.62718191		-2.285416466
F		-1.481649783		1.650445172		-2.174957791
F		-1.120344619		-1.270062925		-0.968067431
F		-0.081930354		-1.008171454		-3.218527004
F		0.489458293		0.365290529		-0.034956978
F		1.048313843		-2.047942712		-0.057921838
