12
-185.77729729
Al		0.276069242		-2.325959361		-1.826649371
Al		2.03275875		-0.541388074		-0.808397144
Al		-0.333779095		0.307469475		-1.801589052
F		3.62286927		-0.180532735		-0.032689672
F		-0.166206744		-4.029748223		-2.228999836
F		2.086403156		-1.785466204		-2.30884616
F		1.527835885		0.626522082		-2.285893058
F		-1.481613723		1.650402982		-2.174946061
F		-1.119838963		-1.269951813		-0.967438287
F		-0.08113659		-1.00798768		-3.21852225
F		0.489133527		0.364558041		-0.034809182
F		1.047700791		-2.047430328		-0.057762194
