12
-185.77729729
Al		0.276081248		-2.325913111		-1.826638449
Al		2.032715586		-0.54139787		-0.8084182
Al		-0.333747937		0.307433021		-1.801578918
F		3.622819314		-0.180544071		-0.032714042
F		-0.16619285		-4.029694697		-2.228987196
F		2.086078212		-1.784881158		-2.309310906
F		1.527799227		0.625862254		-2.28636965
F		-1.481577663		1.650360792		-2.174934331
F		-1.119333307		-1.269840701		-0.966809143
F		-0.080342826		-1.007803906		-3.218517496
F		0.488808761		0.363825553		-0.034661386
F		1.047087739		-2.046917944		-0.05760255
