12
-185.77729729
Al		0.275522969		-2.328063736		-1.827146322
Al		2.034722712		-0.540942356		-0.807439096
Al		-0.335196784		0.309128132		-1.802050149
F		3.625142268		-0.180016947		-0.031580837
F		-0.166838921		-4.032183656		-2.229574956
F		2.101188108		-1.812085797		-2.287700217
F		1.529503824		0.656544256		-2.264208122
F		-1.483254453		1.652322627		-2.175479776
F		-1.142846311		-1.275007409		-0.996064339
F		-0.117252852		-1.016349397		-3.218738557
F		0.50391038		0.397886245		-0.0415339
F		1.075594657		-2.0707438		-0.065025996
