12
-185.77729729
Al		0.275462939		-2.328294986		-1.827200932
Al		2.034938532		-0.540893376		-0.807333816
Al		-0.335352574		0.309310402		-1.802100819
F		3.625392048		-0.179960267		-0.031458987
F		-0.166908391		-4.032451286		-2.229638156
F		2.102812828		-1.815011027		-2.285376487
F		1.529687114		0.659843396		-2.261825162
F		-1.483434753		1.652533577		-2.175538426
F		-1.145374591		-1.275562969		-0.999210059
F		-0.121221672		-1.017268267		-3.218762327
F		0.50553421		0.401548685		-0.04227288
F		1.078659917		-2.07330572		-0.065824216
