12
-185.77729729
Al		0.275456936		-2.328318111		-1.827206393
Al		2.034960114		-0.540888478		-0.807323288
Al		-0.335368153		0.309328629		-1.802105886
F		3.625417026		-0.179954599		-0.031446802
F		-0.166915338		-4.032478049		-2.229644476
F		2.1029753		-1.81530355		-2.285144114
F		1.529705443		0.66017331		-2.261586866
F		-1.483452783		1.652554672		-2.175544291
F		-1.145627419		-1.275618525		-0.999524631
F		-0.121618554		-1.017360154		-3.218764704
F		0.505696593		0.401914929		-0.042346778
F		1.078966443		-2.073561912		-0.065904038
