12
-185.77729729
Al		0.275450933		-2.328341236		-1.827211854
Al		2.034981696		-0.54088358		-0.80731276
Al		-0.335383732		0.309346856		-1.802110953
F		3.625442004		-0.179948931		-0.031434617
F		-0.166922285		-4.032504812		-2.229650796
F		2.103137772		-1.815596073		-2.284911741
F		1.529723772		0.660503224		-2.26134857
F		-1.483470813		1.652575767		-2.175550156
F		-1.145880247		-1.275674081		-0.999839203
F		-0.122015436		-1.017452041		-3.218767081
F		0.505858976		0.402281173		-0.042420676
F		1.079272969		-2.073818104		-0.06598386
