12
-185.77729729
Al		0.27544493		-2.328364361		-1.827217315
Al		2.035003278		-0.540878682		-0.807302232
Al		-0.335399311		0.309365083		-1.80211602
F		3.625466982		-0.179943263		-0.031422432
F		-0.166929232		-4.032531575		-2.229657116
F		2.103300244		-1.815888596		-2.284679368
F		1.529742101		0.660833138		-2.261110274
F		-1.483488843		1.652596862		-2.175556021
F		-1.146133075		-1.275729637		-1.000153775
F		-0.122412318		-1.017543928		-3.218769458
F		0.506021359		0.402647417		-0.042494574
F		1.079579495		-2.074074296		-0.066063682
