12
-185.77729729
Al		0.275438927		-2.328387486		-1.827222776
Al		2.03502486		-0.540873784		-0.807291704
Al		-0.33541489		0.30938331		-1.802121087
F		3.62549196		-0.179937595		-0.031410247
F		-0.166936179		-4.032558338		-2.229663436
F		2.103462716		-1.816181119		-2.284446995
F		1.52976043		0.661163052		-2.260871978
F		-1.483506873		1.652617957		-2.175561886
F		-1.146385903		-1.275785193		-1.000468347
F		-0.1228092		-1.017635815		-3.218771835
F		0.506183742		0.403013661		-0.042568472
F		1.079886021		-2.074330488		-0.066143504
