12
-185.77729729
Al		0.275432924		-2.328410611		-1.827228237
Al		2.035046442		-0.540868886		-0.807281176
Al		-0.335430469		0.309401537		-1.802126154
F		3.625516938		-0.179931927		-0.031398062
F		-0.166943126		-4.032585101		-2.229669756
F		2.103625188		-1.816473642		-2.284214622
F		1.529778759		0.661492966		-2.260633682
F		-1.483524903		1.652639052		-2.175567751
F		-1.146638731		-1.275840749		-1.000782919
F		-0.123206082		-1.017727702		-3.218774212
F		0.506346125		0.403379905		-0.04264237
F		1.080192547		-2.07458668		-0.066223326
