12
-185.77729729
Al		0.275420918		-2.328456861		-1.827239159
Al		2.035089606		-0.54085909		-0.80726012
Al		-0.335461627		0.309437991		-1.802136288
F		3.625566894		-0.179920591		-0.031373692
F		-0.16695702		-4.032638627		-2.229682396
F		2.103950132		-1.817058688		-2.283749876
F		1.529815417		0.662152794		-2.26015709
F		-1.483560963		1.652681242		-2.175579481
F		-1.147144387		-1.275951861		-1.001412063
F		-0.123999846		-1.017911476		-3.218778966
F		0.506670891		0.404112393		-0.042790166
F		1.080805599		-2.075099064		-0.06638297
