12
-185.77729729
Al		0.275402909		-2.328526236		-1.827255542
Al		2.035154352		-0.540844396		-0.807228536
Al		-0.335508364		0.309492672		-1.802151489
F		3.625641828		-0.179903587		-0.031337137
F		-0.166977861		-4.032718916		-2.229701356
F		2.104437548		-1.817936257		-2.283052757
F		1.529870404		0.663142536		-2.259442202
F		-1.483615053		1.652744527		-2.175597076
F		-1.147902871		-1.276118529		-1.002355779
F		-0.125190492		-1.018187137		-3.218786097
F		0.50715804		0.405211125		-0.04301186
F		1.081725177		-2.07586764		-0.066622436
