12
-185.77729729
Al		0.275360888		-2.328688111		-1.827293769
Al		2.035305426		-0.54081011		-0.80715484
Al		-0.335617417		0.309620261		-1.802186958
F		3.625816674		-0.179863911		-0.031251842
F		-0.16702649		-4.032906257		-2.229745596
F		2.105574852		-1.819983918		-2.281426146
F		1.529998707		0.665451934		-2.25777413
F		-1.483741263		1.652892192		-2.175638131
F		-1.149672667		-1.276507421		-1.004557783
F		-0.127968666		-1.018830346		-3.218802736
F		0.508294721		0.407774833		-0.043529146
F		1.083870859		-2.077660984		-0.06718119
