12
-185.77729729
Al		0.275510963		-2.328109986		-1.827157244
Al		2.034765876		-0.54093256		-0.80741804
Al		-0.335227942		0.309164586		-1.802060283
F		3.625192224		-0.180005611		-0.031556467
F		-0.166852815		-4.032237182		-2.229587596
F		2.101513052		-1.812670843		-2.287235471
F		1.529540482		0.657204084		-2.26373153
F		-1.483290513		1.652364817		-2.175491506
F		-1.143351967		-1.275118521		-0.996693483
F		-0.118046616		-1.016533171		-3.218743311
F		0.504235146		0.398618733		-0.041681696
F		1.076207709		-2.071256184		-0.06518564
