12
-185.77729729
Al		0.275342879		-2.328757486		-1.827310152
Al		2.035370172		-0.540795416		-0.807123256
Al		-0.335664154		0.309674942		-1.802202159
F		3.625891608		-0.179846907		-0.031215287
F		-0.167047331		-4.032986546		-2.229764556
F		2.106062268		-1.820861487		-2.280729027
F		1.530053694		0.666441676		-2.257059242
F		-1.483795353		1.652955477		-2.175655726
F		-1.150431151		-1.276674089		-1.005501499
F		-0.129159312		-1.019106007		-3.218809867
F		0.50878187		0.408873565		-0.04375084
F		1.084790437		-2.07842956		-0.067420656
