12
-185.77729729
Al		0.275336876		-2.328780611		-1.827315613
Al		2.035391754		-0.540790518		-0.807112728
Al		-0.335679733		0.309693169		-1.802207226
F		3.625916586		-0.179841239		-0.031203102
F		-0.167054278		-4.033013309		-2.229770876
F		2.10622474		-1.82115401		-2.280496654
F		1.530072023		0.66677159		-2.256820946
F		-1.483813383		1.652976572		-2.175661591
F		-1.150683979		-1.276729645		-1.005816071
F		-0.129556194		-1.019197894		-3.218812244
F		0.508944253		0.409239809		-0.043824738
F		1.085096963		-2.078685752		-0.067500478
