12
-185.77729729
Al		0.275312864		-2.328873111		-1.827337457
Al		2.035478082		-0.540770926		-0.807070616
Al		-0.335742049		0.309766077		-1.802227494
F		3.626016498		-0.179818567		-0.031154362
F		-0.167082066		-4.033120361		-2.229796156
F		2.106874628		-1.822324102		-2.279567162
F		1.530145339		0.668091246		-2.255867762
F		-1.483885503		1.653060952		-2.175685051
F		-1.151695291		-1.276951869		-1.007074359
F		-0.131143722		-1.019565442		-3.218821752
F		0.509593785		0.410704785		-0.04412033
F		1.086323067		-2.07971052		-0.067819766
