12
-185.77729729
Al		0.275276846		-2.329011861		-1.827370223
Al		2.035607574		-0.540741538		-0.807007448
Al		-0.335835523		0.309875439		-1.802257896
F		3.626166366		-0.179784559		-0.031081252
F		-0.167123748		-4.033280939		-2.229834076
F		2.10784946		-1.82407924		-2.278172924
F		1.530255313		0.67007073		-2.254437986
F		-1.483993683		1.653187522		-2.175720241
F		-1.153212259		-1.277285205		-1.008961791
F		-0.133525014		-1.020116764		-3.218836014
F		0.510568083		0.412902249		-0.044563718
F		1.088162223		-2.081247672		-0.068298698
