12
-185.77729729
Al		0.275258837		-2.329081236		-1.827386606
Al		2.03567232		-0.540726844		-0.806975864
Al		-0.33588226		0.30993012		-1.802273097
F		3.6262413		-0.179767555		-0.031044697
F		-0.167144589		-4.033361228		-2.229853036
F		2.108336876		-1.824956809		-2.277475805
F		1.5303103		0.671060472		-2.253723098
F		-1.484047773		1.653250807		-2.175737836
F		-1.153970743		-1.277451873		-1.009905507
F		-0.13471566		-1.020392425		-3.218843145
F		0.511055232		0.414000981		-0.044785412
F		1.089081801		-2.082016248		-0.068538164
