12
-185.77729729
Al		0.275252834		-2.329104361		-1.827392067
Al		2.035693902		-0.540721946		-0.806965336
Al		-0.335897839		0.309948347		-1.802278164
F		3.626266278		-0.179761887		-0.031032512
F		-0.167151536		-4.033387991		-2.229859356
F		2.108499348		-1.825249332		-2.277243432
F		1.530328629		0.671390386		-2.253484802
F		-1.484065803		1.653271902		-2.175743701
F		-1.154223571		-1.277507429		-1.010220079
F		-0.135112542		-1.020484312		-3.218845522
F		0.511217615		0.414367225		-0.04485931
F		1.089388327		-2.08227244		-0.068617986
