12
-185.77729729
Al		0.275192804		-2.329335611		-1.827446677
Al		2.035909722		-0.540672966		-0.806860056
Al		-0.336053629		0.310130617		-1.802328834
F		3.626516058		-0.179705207		-0.030910662
F		-0.167221006		-4.033655621		-2.229922556
F		2.110124068		-1.828174562		-2.274919702
F		1.530511919		0.674689526		-2.251101842
F		-1.484246103		1.653482852		-2.175802351
F		-1.156751851		-1.278062989		-1.013365799
F		-0.139081362		-1.021403182		-3.218869292
F		0.512841445		0.418029665		-0.04559829
F		1.092453587		-2.08483436		-0.069416206
