12
-185.77729729
Al		0.275174795		-2.329404986		-1.82746306
Al		2.035974468		-0.540658272		-0.806828472
Al		-0.336100366		0.310185298		-1.802344035
F		3.626590992		-0.179688203		-0.030874107
F		-0.167241847		-4.03373591		-2.229941516
F		2.110611484		-1.829052131		-2.274222583
F		1.530566906		0.675679268		-2.250386954
F		-1.484300193		1.653546137		-2.175819946
F		-1.157510335		-1.278229657		-1.014309515
F		-0.140272008		-1.021678843		-3.218876423
F		0.513328594		0.419128397		-0.045819984
F		1.093373165		-2.085602936		-0.069655672
