12
-185.77729729
Al		0.275492954		-2.328179361		-1.827173627
Al		2.034830622		-0.540917866		-0.807386456
Al		-0.335274679		0.309219267		-1.802075484
F		3.625267158		-0.179988607		-0.031519912
F		-0.166873656		-4.032317471		-2.229606556
F		2.102000468		-1.813548412		-2.286538352
F		1.529595469		0.658193826		-2.263016642
F		-1.483344603		1.652428102		-2.175509101
F		-1.144110451		-1.275285189		-0.997637199
F		-0.119237262		-1.016808832		-3.218750442
F		0.504722295		0.399717465		-0.04190339
F		1.077127287		-2.07202476		-0.065425106
