12
-185.77729729
Al		0.275138777		-2.329543736		-1.827495826
Al		2.03610396		-0.540628884		-0.806765304
Al		-0.33619384		0.31029466		-1.802374437
F		3.62674086		-0.179654195		-0.030800997
F		-0.167283529		-4.033896488		-2.229979436
F		2.111586316		-1.830807269		-2.272828345
F		1.53067688		0.677658752		-2.248957178
F		-1.484408373		1.653672707		-2.175855136
F		-1.159027303		-1.278562993		-1.016196947
F		-0.1426533		-1.022230165		-3.218890685
F		0.514302892		0.421325861		-0.046263372
F		1.095212321		-2.087140088		-0.070134604
