12
-185.77729729
Al		0.275120768		-2.329613111		-1.827512209
Al		2.036168706		-0.54061419		-0.80673372
Al		-0.336240577		0.310349341		-1.802389638
F		3.626815794		-0.179637191		-0.030764442
F		-0.16730437		-4.033976777		-2.229998396
F		2.112073732		-1.831684838		-2.272131226
F		1.530731867		0.678648494		-2.24824229
F		-1.484462463		1.653735992		-2.175872731
F		-1.159785787		-1.278729661		-1.017140663
F		-0.143843946		-1.022505826		-3.218897816
F		0.514790041		0.422424593		-0.046485066
F		1.096131899		-2.087908664		-0.07037407
