12
-185.77729729
Al		0.275114765		-2.329636236		-1.82751767
Al		2.036190288		-0.540609292		-0.806723192
Al		-0.336256156		0.310367568		-1.802394705
F		3.626840772		-0.179631523		-0.030752257
F		-0.167311317		-4.03400354		-2.230004716
F		2.112236204		-1.831977361		-2.271898853
F		1.530750196		0.678978408		-2.248003994
F		-1.484480493		1.653757087		-2.175878596
F		-1.160038615		-1.278785217		-1.017455235
F		-0.144240828		-1.022597713		-3.218900193
F		0.514952424		0.422790837		-0.046558964
F		1.096438425		-2.088164856		-0.070453892
