12
-185.77729729
Al		0.275486951		-2.328202486		-1.827179088
Al		2.034852204		-0.540912968		-0.807375928
Al		-0.335290258		0.309237494		-1.802080551
F		3.625292136		-0.179982939		-0.031507727
F		-0.166880603		-4.032344234		-2.229612876
F		2.10216294		-1.813840935		-2.286305979
F		1.529613798		0.65852374		-2.262778346
F		-1.483362633		1.652449197		-2.175514966
F		-1.144363279		-1.275340745		-0.997951771
F		-0.119634144		-1.016900719		-3.218752819
F		0.504884678		0.400083709		-0.041977288
F		1.077433813		-2.072280952		-0.065504928
