12
-185.77729729
Al		0.275108762		-2.329659361		-1.827523131
Al		2.03621187		-0.540604394		-0.806712664
Al		-0.336271735		0.310385795		-1.802399772
F		3.62686575		-0.179625855		-0.030740072
F		-0.167318264		-4.034030303		-2.230011036
F		2.112398676		-1.832269884		-2.27166648
F		1.530768525		0.679308322		-2.247765698
F		-1.484498523		1.653778182		-2.175884461
F		-1.160291443		-1.278840773		-1.017769807
F		-0.14463771		-1.0226896		-3.21890257
F		0.515114807		0.423157081		-0.046632862
F		1.096744951		-2.088421048		-0.070533714
