12
-185.77729729
Al		0.275090753		-2.329728736		-1.827539514
Al		2.036276616		-0.5405897		-0.80668108
Al		-0.336318472		0.310440476		-1.802414973
F		3.626940684		-0.179608851		-0.030703517
F		-0.167339105		-4.034110592		-2.230029996
F		2.112886092		-1.833147453		-2.270969361
F		1.530823512		0.680298064		-2.24705081
F		-1.484552613		1.653841467		-2.175902056
F		-1.161049927		-1.279007441		-1.018713523
F		-0.145828356		-1.022965261		-3.218909701
F		0.515601956		0.424255813		-0.046854556
F		1.097664529		-2.089189624		-0.07077318
