12
-185.77729729
Al		0.27502472		-2.329983111		-1.827599585
Al		2.036514018		-0.540535822		-0.806565272
Al		-0.336489841		0.310640973		-1.80247071
F		3.627215442		-0.179546503		-0.030569482
F		-0.167415522		-4.034404985		-2.230099516
F		2.114673284		-1.836365206		-2.268413258
F		1.531025131		0.683927118		-2.244429554
F		-1.484750943		1.654073512		-2.175966571
F		-1.163831035		-1.279618557		-1.022173815
F		-0.150194058		-1.023976018		-3.218935848
F		0.517388169		0.428284497		-0.047667434
F		1.101036315		-2.092007736		-0.071651222
