12
-185.77729729
Al		0.275006711		-2.330052486		-1.827615968
Al		2.036578764		-0.540521128		-0.806533688
Al		-0.336536578		0.310695654		-1.802485911
F		3.627290376		-0.179529499		-0.030532927
F		-0.167436363		-4.034485274		-2.230118476
F		2.1151607		-1.837242775		-2.267716139
F		1.531080118		0.68491686		-2.243714666
F		-1.484805033		1.654136797		-2.175984166
F		-1.164589519		-1.279785225		-1.023117531
F		-0.151384704		-1.024251679		-3.218942979
F		0.517875318		0.429383229		-0.047889128
F		1.101955893		-2.092776312		-0.071890688
