12
-185.77729729
Al		0.275474945		-2.328248736		-1.82719001
Al		2.034895368		-0.540903172		-0.807354872
Al		-0.335321416		0.309273948		-1.802090685
F		3.625342092		-0.179971603		-0.031483357
F		-0.166894497		-4.03239776		-2.229625516
F		2.102487884		-1.814425981		-2.285841233
F		1.529650456		0.659183568		-2.262301754
F		-1.483398693		1.652491387		-2.175526696
F		-1.144868935		-1.275451857		-0.998580915
F		-0.120427908		-1.017084493		-3.218757573
F		0.505209444		0.400816197		-0.042125084
F		1.078046865		-2.072793336		-0.065664572
