12
-185.77729729
Al		0.274982699		-2.330144986		-1.827637812
Al		2.036665092		-0.540501536		-0.806491576
Al		-0.336598894		0.310768562		-1.802506179
F		3.627390288		-0.179506827		-0.030484187
F		-0.167464151		-4.034592326		-2.230143756
F		2.115810588		-1.838412867		-2.266786647
F		1.531153434		0.686236516		-2.242761482
F		-1.484877153		1.654221177		-2.176007626
F		-1.165600831		-1.280007449		-1.024375819
F		-0.152972232		-1.024619227		-3.218952487
F		0.51852485		0.430848205		-0.04818472
F		1.103181997		-2.09380108		-0.072209976
