12
Properties=species:S:1:pos:R:3:forces:R:3 energy=-187.16141976 pbc="F F F"
Al    0.372133893    -0.474498558    1.681646339    0.279641    -0.006874    -0.022804
Al    2.386417165    -1.752435572    -0.578331997    -0.171474    0.153423    0.233982
Al    -0.849955981    -1.966828558    -0.989673943    -0.068944    -0.113842    -0.208485
F    3.789020607    -0.506378593    -0.73611388    -0.071583    0.164554    0.087987
F    -1.927793954    -0.5882944880000001    -1.6262783969999999    -0.086278    -0.146446    -0.128461
F    2.6822540950000002    -3.558432494    -0.8319266430000001    -0.134494    -0.097387    0.119511
F    -1.4841894660000001    -3.6810210019999996    -0.9340773199999999    -0.128702    0.040028    -0.166169
F    1.933109897    -1.2555510929999998    1.132385002    0.050444    0.028492    0.040746
F    0.867025564    -1.689302482    -1.655226165    -0.000744    0.000229    0.003575
F    -0.14676694800000004    -1.147960963    3.332015289    0.16475    -0.00854    0.032267
F    0.367556071    1.293350599    1.298216636    0.104472    0.005122    0.017113
F    -0.7663055679999999    -1.544641683    0.756042314    0.06291    -0.018757    -0.009267
