12
-187.38518821
Al		1.282210262		0.046877516		2.447601237
Al		1.2096776		1.1261998		-0.0709384
Al		-0.321855985		0.834866764		-2.325438073
F		-1.673123804		-0.369848944		-2.223708077
F		1.948940192		-0.123644354		0.652419513
F		0.046369384		1.817900854		-3.797735994
F		-0.120411826		1.820992481		-0.687372895
F		2.430587753		2.273181509		-0.291890244
F		1.254436423		0.217525928		-1.414133577
F		0.574090271		1.479821223		1.379180502
F		2.54106113		0.592397619		3.625441809
F		0.021430159		-1.202289859		2.818580986
