12
-187.38518821
Al		1.28213958		0.046532417		2.448228573
Al		1.1984932		1.1156926		-0.0689143
Al		-0.322316162		0.83471315		-2.325969273
F		-1.673552172		-0.369841053		-2.224534806
F		1.929901253		-0.085565753		0.635167452
F		0.045832939		1.81743989		-3.797733933
F		-0.08063881		1.802392353		-0.673873149
F		2.404372257		2.248554012		-0.287146043
F		1.253044739		0.246935205		-1.378873654
F		0.596215617		1.469890129		1.340168339
F		2.540584769		0.591907176		3.625623037
F		0.021575175		-1.202563852		2.819458971
