12
-187.38518821
Al		1.28326438		0.052047617		2.438188573
Al		1.3774436		1.2838078		-0.1012999
Al		-0.314959362		0.83716595		-2.317465273
F		-1.666704172		-0.369972253		-2.211293206
F		2.234525253		-0.694823353		0.911199452
F		0.054402539		1.82480309		-3.797769133
F		-0.71700681		2.099995553		-0.889868349
F		2.823810657		2.642594012		-0.363053243
F		1.275308739		-0.223615195		-1.943030454
F		0.242207617		1.628784529		1.964361939
F		2.548194369		0.599742376		3.622730237
F		0.019247175		-1.198187852		2.805399771
