12
-187.38518821
Al		1.282069662		0.046188116		2.448856237
Al		1.1873088		1.1051854		-0.0668902
Al		-0.322775585		0.834560164		-2.326501073
F		-1.673979804		-0.369832544		-2.225363277
F		1.910862192		-0.047487154		0.617915513
F		0.045298184		1.816980454		-3.797731594
F		-0.040865826		1.783792081		-0.660373495
F		2.378158153		2.223926509		-0.282401844
F		1.251653423		0.276344728		-1.343613977
F		0.618341271		1.459959423		1.301156302
F		2.54010993		0.591418219		3.625803409
F		0.021721159		-1.202836859		2.820338386
