12
-187.38518821
Al		1.28192868		0.045498317		2.450111073
Al		1.16494		1.084171		-0.062842
Al		-0.323695562		0.83425325		-2.327563773
F		-1.674836172		-0.369816453		-2.227017606
F		1.872784253		0.028670047		0.583411452
F		0.044226139		1.81605929		-3.797727333
F		0.03868019		1.746591753		-0.633374049
F		2.325727557		2.174671512		-0.272913443
F		1.248870239		0.335163405		-1.273094254
F		0.662592117		1.440097429		1.223132039
F		2.539157969		0.590438076		3.626165437
F		0.022011675		-1.203384352		2.822095071
