12
-187.38518821
Al		1.28312378		0.051358217		2.439443573
Al		1.3550748		1.2627934		-0.0972517
Al		-0.315878962		0.83685935		-2.318528273
F		-1.667560172		-0.369955853		-2.212948406
F		2.196447253		-0.618666153		0.876695452
F		0.053331339		1.82388269		-3.797764733
F		-0.63746081		2.062795153		-0.862868949
F		2.771380857		2.593339012		-0.353564843
F		1.272525739		-0.164796395		-1.872510854
F		0.286458617		1.608922729		1.886337739
F		2.547243169		0.598762976		3.623091837
F		0.019538175		-1.198734852		2.807157171
