12
-187.38518821
Al		1.283053862		0.051013916		2.440071237
Al		1.3438904		1.2522862		-0.0952276
Al		-0.316338385		0.836706364		-2.319060073
F		-1.667987804		-0.369947344		-2.213776877
F		2.177408192		-0.580587554		0.859443513
F		0.052796584		1.823423254		-3.797762394
F		-0.597687826		2.044194881		-0.849369295
F		2.745165353		2.568711509		-0.348820644
F		1.271134423		-0.135386872		-1.837251177
F		0.308584271		1.598992023		1.847325702
F		2.54676833		0.598274019		3.623272209
F		0.019684159		-1.199007859		2.808036586
