12
-187.38518821
Al		1.28256138		0.048600617		2.444463573
Al		1.2655996		1.1787358		-0.0810589
Al		-0.319557362		0.83563295		-2.322780273
F		-1.670984172		-0.369890253		-2.219569206
F		2.044135253		-0.314037353		0.738679452
F		0.049046539		1.82020109		-3.797747133
F		-0.31927681		1.913993553		-0.754871349
F		2.561661657		2.396319012		-0.315611243
F		1.261393739		0.070478805		-1.590432454
F		0.463462617		1.529475529		1.574240939
F		2.543438369		0.594845376		3.624538237
F		0.020702175		-1.200922852		2.814186771
