12
-187.38518821
Al		1.28220988		0.046877117		2.447601073
Al		1.2096776		1.1261998		-0.0709384
Al		-0.321856362		0.83486645		-2.325437773
F		-1.673124172		-0.369849253		-2.223707206
F		1.948940253		-0.123644353		0.652419452
F		0.046368539		1.81790009		-3.797736133
F		-0.12041181		1.820992553		-0.687372849
F		2.430587157		2.273181512		-0.291890243
F		1.254436239		0.217525805		-1.414133454
F		0.574090117		1.479821029		1.379180439
F		2.541060369		0.592396876		3.625442237
F		0.021429675		-1.202290352		2.818580271
