12
-187.38518821
Al		1.28319408		0.051702917		2.438816073
Al		1.3662592		1.2733006		-0.0992758
Al		-0.315419162		0.83701265		-2.317996773
F		-1.667132172		-0.369964053		-2.212120806
F		2.215486253		-0.656744753		0.893947452
F		0.053866939		1.82434289		-3.797766933
F		-0.67723381		2.081395353		-0.876368649
F		2.797595757		2.617966512		-0.358309043
F		1.273917239		-0.194205795		-1.907770654
F		0.264333117		1.618853629		1.925349839
F		2.547718769		0.599252676		3.622911037
F		0.019392675		-1.198461352		2.806278471
