12
-187.38518821
Al		1.28206928		0.046187717		2.448856073
Al		1.1873088		1.1051854		-0.0668902
Al		-0.322775962		0.83455985		-2.326500773
F		-1.673980172		-0.369832853		-2.225362406
F		1.910862253		-0.047487153		0.617915452
F		0.045297339		1.81697969		-3.797731733
F		-0.04086581		1.783792153		-0.660373449
F		2.378157357		2.223926512		-0.282401843
F		1.251653239		0.276344605		-1.343613854
F		0.618341117		1.459959229		1.301156239
F		2.540109169		0.591417476		3.625803837
F		0.021720675		-1.202837352		2.820337671
