12
-187.38518821
Al		1.28228018		0.047221817		2.446973573
Al		1.220862		1.136707		-0.0729625
Al		-0.321396562		0.83501975		-2.324906273
F		-1.672696172		-0.369857453		-2.222879606
F		1.967979253		-0.161722953		0.669671452
F		0.046904139		1.81836029		-3.797738333
F		-0.16018481		1.839592753		-0.700872549
F		2.456802057		2.297809012		-0.296634443
F		1.255827739		0.188116405		-1.449393254
F		0.551964617		1.489751929		1.418192539
F		2.541535969		0.592886576		3.625261437
F		0.021284175		-1.202016852		2.817701571
