12
-187.38518821
Al		1.282491462		0.048256316		2.445091237
Al		1.2544152		1.1682286		-0.0790348
Al		-0.320016785		0.835479964		-2.323312073
F		-1.671411804		-0.369881744		-2.220397677
F		2.025096192		-0.275958754		0.721427513
F		0.048511784		1.819741654		-3.797744794
F		-0.279503826		1.895393281		-0.741371695
F		2.535446953		2.371691509		-0.310867044
F		1.260002423		0.099888328		-1.555172777
F		0.485588271		1.519544823		1.535228902
F		2.54296353		0.594356419		3.624718609
F		0.020848159		-1.201195859		2.815066186
