12
-187.38518821
Al		1.28192868		0.045498317		2.450111073
Al		1.16494		1.084171		-0.062842
Al		-0.323695562		0.83425325		-2.327563773
F		-1.674836172		-0.369816453		-2.227017606
F		1.872784253		0.028670047		0.583411452
F		0.044226139		1.81605929		-3.797727333
F		0.03868019		1.746591753		-0.633374049
F		2.325727557		2.174671512		-0.272913443
F		1.248870239		0.335163405		-1.273094254
F		0.662592117		1.440097429		1.223132039
F		2.539157969		0.590438076		3.626165437
F		0.022011675		-1.203384352		2.822095071
12
-187.38518821
Al		1.28199898		0.045843017		2.449483573
Al		1.1761244		1.0946782		-0.0648661
Al		-0.323235762		0.83440655		-2.327032273
F		-1.674408172		-0.369824653		-2.226190006
F		1.891823253		-0.009408553		0.600663452
F		0.044761739		1.81651949		-3.797729533
F		-0.00109281		1.765191953		-0.646873749
F		2.351942457		2.199299012		-0.277657643
F		1.250261739		0.305754005		-1.308354054
F		0.640466617		1.450028329		1.262144139
F		2.539633569		0.590927776		3.625984637
F		0.021866175		-1.203110852		2.821216371
12
-187.38518821
Al		1.28206928		0.046187717		2.448856073
Al		1.1873088		1.1051854		-0.0668902
Al		-0.322775962		0.83455985		-2.326500773
F		-1.673980172		-0.369832853		-2.225362406
F		1.910862253		-0.047487153		0.617915452
F		0.045297339		1.81697969		-3.797731733
F		-0.04086581		1.783792153		-0.660373449
F		2.378157357		2.223926512		-0.282401843
F		1.251653239		0.276344605		-1.343613854
F		0.618341117		1.459959229		1.301156239
F		2.540109169		0.591417476		3.625803837
F		0.021720675		-1.202837352		2.820337671
12
-187.38518821
Al		1.28213958		0.046532417		2.448228573
Al		1.1984932		1.1156926		-0.0689143
Al		-0.322316162		0.83471315		-2.325969273
F		-1.673552172		-0.369841053		-2.224534806
F		1.929901253		-0.085565753		0.635167452
F		0.045832939		1.81743989		-3.797733933
F		-0.08063881		1.802392353		-0.673873149
F		2.404372257		2.248554012		-0.287146043
F		1.253044739		0.246935205		-1.378873654
F		0.596215617		1.469890129		1.340168339
F		2.540584769		0.591907176		3.625623037
F		0.021575175		-1.202563852		2.819458971
12
-187.38518821
Al		1.28220988		0.046877117		2.447601073
Al		1.2096776		1.1261998		-0.0709384
Al		-0.321856362		0.83486645		-2.325437773
F		-1.673124172		-0.369849253		-2.223707206
F		1.948940253		-0.123644353		0.652419452
F		0.046368539		1.81790009		-3.797736133
F		-0.12041181		1.820992553		-0.687372849
F		2.430587157		2.273181512		-0.291890243
F		1.254436239		0.217525805		-1.414133454
F		0.574090117		1.479821029		1.379180439
F		2.541060369		0.592396876		3.625442237
F		0.021429675		-1.202290352		2.818580271
12
-187.38518821
Al		1.28228018		0.047221817		2.446973573
Al		1.220862		1.136707		-0.0729625
Al		-0.321396562		0.83501975		-2.324906273
F		-1.672696172		-0.369857453		-2.222879606
F		1.967979253		-0.161722953		0.669671452
F		0.046904139		1.81836029		-3.797738333
F		-0.16018481		1.839592753		-0.700872549
F		2.456802057		2.297809012		-0.296634443
F		1.255827739		0.188116405		-1.449393254
F		0.551964617		1.489751929		1.418192539
F		2.541535969		0.592886576		3.625261437
F		0.021284175		-1.202016852		2.817701571
12
-187.38518821
Al		1.28235048		0.047566517		2.446346073
Al		1.2320464		1.1472142		-0.0749866
Al		-0.320936762		0.83517305		-2.324374773
F		-1.672268172		-0.369865653		-2.222052006
F		1.987018253		-0.199801553		0.686923452
F		0.047439739		1.81882049		-3.797740533
F		-0.19995781		1.858192953		-0.714372249
F		2.483016957		2.322436512		-0.301378643
F		1.257219239		0.158707005		-1.484653054
F		0.529839117		1.499682829		1.457204639
F		2.542011569		0.593376276		3.625080637
F		0.021138675		-1.201743352		2.816822871
12
-187.38518821
Al		1.28242078		0.047911217		2.445718573
Al		1.2432308		1.1577214		-0.0770107
Al		-0.320476962		0.83532635		-2.323843273
F		-1.671840172		-0.369873853		-2.221224406
F		2.006057253		-0.237880153		0.704175452
F		0.047975339		1.81928069		-3.797742733
F		-0.23973081		1.876793153		-0.727871949
F		2.509231857		2.347064012		-0.306122843
F		1.258610739		0.129297605		-1.519912854
F		0.507713617		1.509613729		1.496216739
F		2.542487169		0.593865976		3.624899837
F		0.020993175		-1.201469852		2.815944171
12
-187.38518821
Al		1.28249108		0.048255917		2.445091073
Al		1.2544152		1.1682286		-0.0790348
Al		-0.320017162		0.83547965		-2.323311773
F		-1.671412172		-0.369882053		-2.220396806
F		2.025096253		-0.275958753		0.721427452
F		0.048510939		1.81974089		-3.797744933
F		-0.27950381		1.895393353		-0.741371649
F		2.535446757		2.371691512		-0.310867043
F		1.260002239		0.099888205		-1.555172654
F		0.485588117		1.519544629		1.535228839
F		2.542962769		0.594355676		3.624719037
F		0.020847675		-1.201196352		2.815065471
12
-187.38518821
Al		1.28256138		0.048600617		2.444463573
Al		1.2655996		1.1787358		-0.0810589
Al		-0.319557362		0.83563295		-2.322780273
F		-1.670984172		-0.369890253		-2.219569206
F		2.044135253		-0.314037353		0.738679452
F		0.049046539		1.82020109		-3.797747133
F		-0.31927681		1.913993553		-0.754871349
F		2.561661657		2.396319012		-0.315611243
F		1.261393739		0.070478805		-1.590432454
F		0.463462617		1.529475529		1.574240939
F		2.543438369		0.594845376		3.624538237
F		0.020702175		-1.200922852		2.814186771
12
-187.38518821
Al		1.28263168		0.048945317		2.443836073
Al		1.276784		1.189243		-0.083083
Al		-0.319097562		0.83578625		-2.322248773
F		-1.670556172		-0.369898453		-2.218741606
F		2.063174253		-0.352115953		0.755931452
F		0.049582139		1.82066129		-3.797749333
F		-0.35904981		1.932593753		-0.768371049
F		2.587876557		2.420946512		-0.320355443
F		1.262785239		0.041069405		-1.625692254
F		0.441337117		1.539406429		1.613253039
F		2.543913969		0.595335076		3.624357437
F		0.020556675		-1.200649352		2.813308071
12
-187.38518821
Al		1.28270198		0.049290017		2.443208573
Al		1.2879684		1.1997502		-0.0851071
Al		-0.318637762		0.83593955		-2.321717273
F		-1.670128172		-0.369906653		-2.217914006
F		2.082213253		-0.390194553		0.773183452
F		0.050117739		1.82112149		-3.797751533
F		-0.39882281		1.951193953		-0.781870749
F		2.614091457		2.445574012		-0.325099643
F		1.264176739		0.011660005		-1.660952054
F		0.419211617		1.549337329		1.652265139
F		2.544389569		0.595824776		3.624176637
F		0.020411175		-1.200375852		2.812429371
12
-187.38518821
Al		1.28277228		0.049634717		2.442581073
Al		1.2991528		1.2102574		-0.0871312
Al		-0.318177962		0.83609285		-2.321185773
F		-1.669700172		-0.369914853		-2.217086406
F		2.101252253		-0.428273153		0.790435452
F		0.050653339		1.82158169		-3.797753733
F		-0.43859581		1.969794153		-0.795370449
F		2.640306357		2.470201512		-0.329843843
F		1.265568239		-0.017749395		-1.696211854
F		0.397086117		1.559268229		1.691277239
F		2.544865169		0.596314476		3.623995837
F		0.020265675		-1.200102352		2.811550671
12
-187.38518821
Al		1.28284258		0.049979417		2.441953573
Al		1.3103372		1.2207646		-0.0891553
Al		-0.317718162		0.83624615		-2.320654273
F		-1.669272172		-0.369923053		-2.216258806
F		2.120291253		-0.466351753		0.807687452
F		0.051188939		1.82204189		-3.797755933
F		-0.47836881		1.988394353		-0.808870149
F		2.666521257		2.494829012		-0.334588043
F		1.266959739		-0.047158795		-1.731471654
F		0.374960617		1.569199129		1.730289339
F		2.545340769		0.596804176		3.623815037
F		0.020120175		-1.199828852		2.810671971
12
-187.38518821
Al		1.28291288		0.050324117		2.441326073
Al		1.3215216		1.2312718		-0.0911794
Al		-0.317258362		0.83639945		-2.320122773
F		-1.668844172		-0.369931253		-2.215431206
F		2.139330253		-0.504430353		0.824939452
F		0.051724539		1.82250209		-3.797758133
F		-0.51814181		2.006994553		-0.822369849
F		2.692736157		2.519456512		-0.339332243
F		1.268351239		-0.076568195		-1.766731454
F		0.352835117		1.579130029		1.769301439
F		2.545816369		0.597293876		3.623634237
F		0.019974675		-1.199555352		2.809793271
12
-187.38518821
Al		1.28298318		0.050668817		2.440698573
Al		1.332706		1.241779		-0.0932035
Al		-0.316798562		0.83655275		-2.319591273
F		-1.668416172		-0.369939453		-2.214603606
F		2.158369253		-0.542508953		0.842191452
F		0.052260139		1.82296229		-3.797760333
F		-0.55791481		2.025594753		-0.835869549
F		2.718951057		2.544084012		-0.344076443
F		1.269742739		-0.105977595		-1.801991254
F		0.330709617		1.589060929		1.808313539
F		2.546291969		0.597783576		3.623453437
F		0.019829175		-1.199281852		2.808914571
12
-187.38518821
Al		1.28305348		0.051013517		2.440071073
Al		1.3438904		1.2522862		-0.0952276
Al		-0.316338762		0.83670605		-2.319059773
F		-1.667988172		-0.369947653		-2.213776006
F		2.177408253		-0.580587553		0.859443452
F		0.052795739		1.82342249		-3.797762533
F		-0.59768781		2.044194953		-0.849369249
F		2.745165957		2.568711512		-0.348820643
F		1.271134239		-0.135386995		-1.837251054
F		0.308584117		1.598991829		1.847325639
F		2.546767569		0.598273276		3.623272637
F		0.019683675		-1.199008352		2.808035871
12
-187.38518821
Al		1.28312378		0.051358217		2.439443573
Al		1.3550748		1.2627934		-0.0972517
Al		-0.315878962		0.83685935		-2.318528273
F		-1.667560172		-0.369955853		-2.212948406
F		2.196447253		-0.618666153		0.876695452
F		0.053331339		1.82388269		-3.797764733
F		-0.63746081		2.062795153		-0.862868949
F		2.771380857		2.593339012		-0.353564843
F		1.272525739		-0.164796395		-1.872510854
F		0.286458617		1.608922729		1.886337739
F		2.547243169		0.598762976		3.623091837
F		0.019538175		-1.198734852		2.807157171
12
-187.38518821
Al		1.28319408		0.051702917		2.438816073
Al		1.3662592		1.2733006		-0.0992758
Al		-0.315419162		0.83701265		-2.317996773
F		-1.667132172		-0.369964053		-2.212120806
F		2.215486253		-0.656744753		0.893947452
F		0.053866939		1.82434289		-3.797766933
F		-0.67723381		2.081395353		-0.876368649
F		2.797595757		2.617966512		-0.358309043
F		1.273917239		-0.194205795		-1.907770654
F		0.264333117		1.618853629		1.925349839
F		2.547718769		0.599252676		3.622911037
F		0.019392675		-1.198461352		2.806278471
12
-187.38518821
Al		1.28326438		0.052047617		2.438188573
Al		1.3774436		1.2838078		-0.1012999
Al		-0.314959362		0.83716595		-2.317465273
F		-1.666704172		-0.369972253		-2.211293206
F		2.234525253		-0.694823353		0.911199452
F		0.054402539		1.82480309		-3.797769133
F		-0.71700681		2.099995553		-0.889868349
F		2.823810657		2.642594012		-0.363053243
F		1.275308739		-0.223615195		-1.943030454
F		0.242207617		1.628784529		1.964361939
F		2.548194369		0.599742376		3.622730237
F		0.019247175		-1.198187852		2.805399771
