12
-187.38518821
Al		1.281929062		0.045498716		2.450111237
Al		1.16494		1.084171		-0.062842
Al		-0.323695185		0.834253564		-2.327564073
F		-1.674835804		-0.369816144		-2.227018477
F		1.872784192		0.028670046		0.583411513
F		0.044226984		1.816060054		-3.797727194
F		0.038680174		1.746591681		-0.633374095
F		2.325728553		2.174671509		-0.272913444
F		1.248870423		0.335163528		-1.273094377
F		0.662592271		1.440097623		1.223132102
F		2.53915873		0.590438819		3.626165009
F		0.022012159		-1.203383859		2.822095786
12
-187.38518821
Al		1.282069662		0.046188116		2.448856237
Al		1.1873088		1.1051854		-0.0668902
Al		-0.322775585		0.834560164		-2.326501073
F		-1.673979804		-0.369832544		-2.225363277
F		1.910862192		-0.047487154		0.617915513
F		0.045298184		1.816980454		-3.797731594
F		-0.040865826		1.783792081		-0.660373495
F		2.378158153		2.223926509		-0.282401844
F		1.251653423		0.276344728		-1.343613977
F		0.618341271		1.459959423		1.301156302
F		2.54010993		0.591418219		3.625803409
F		0.021721159		-1.202836859		2.820338386
12
-187.38518821
Al		1.282210262		0.046877516		2.447601237
Al		1.2096776		1.1261998		-0.0709384
Al		-0.321855985		0.834866764		-2.325438073
F		-1.673123804		-0.369848944		-2.223708077
F		1.948940192		-0.123644354		0.652419513
F		0.046369384		1.817900854		-3.797735994
F		-0.120411826		1.820992481		-0.687372895
F		2.430587753		2.273181509		-0.291890244
F		1.254436423		0.217525928		-1.414133577
F		0.574090271		1.479821223		1.379180502
F		2.54106113		0.592397619		3.625441809
F		0.021430159		-1.202289859		2.818580986
12
-187.38518821
Al		1.282350862		0.047566916		2.446346237
Al		1.2320464		1.1472142		-0.0749866
Al		-0.320936385		0.835173364		-2.324375073
F		-1.672267804		-0.369865344		-2.222052877
F		1.987018192		-0.199801554		0.686923513
F		0.047440584		1.818821254		-3.797740394
F		-0.199957826		1.858192881		-0.714372295
F		2.483017353		2.322436509		-0.301378644
F		1.257219423		0.158707128		-1.484653177
F		0.529839271		1.499683023		1.457204702
F		2.54201233		0.593377019		3.625080209
F		0.021139159		-1.201742859		2.816823586
12
-187.38518821
Al		1.282491462		0.048256316		2.445091237
Al		1.2544152		1.1682286		-0.0790348
Al		-0.320016785		0.835479964		-2.323312073
F		-1.671411804		-0.369881744		-2.220397677
F		2.025096192		-0.275958754		0.721427513
F		0.048511784		1.819741654		-3.797744794
F		-0.279503826		1.895393281		-0.741371695
F		2.535446953		2.371691509		-0.310867044
F		1.260002423		0.099888328		-1.555172777
F		0.485588271		1.519544823		1.535228902
F		2.54296353		0.594356419		3.624718609
F		0.020848159		-1.201195859		2.815066186
12
-187.38518821
Al		1.282632062		0.048945716		2.443836237
Al		1.276784		1.189243		-0.083083
Al		-0.319097185		0.835786564		-2.322249073
F		-1.670555804		-0.369898144		-2.218742477
F		2.063174192		-0.352115954		0.755931513
F		0.049582984		1.820662054		-3.797749194
F		-0.359049826		1.932593681		-0.768371095
F		2.587876553		2.420946509		-0.320355444
F		1.262785423		0.041069528		-1.625692377
F		0.441337271		1.539406623		1.613253102
F		2.54391473		0.595335819		3.624357009
F		0.020557159		-1.200648859		2.813308786
12
-187.38518821
Al		1.282772662		0.049635116		2.442581237
Al		1.2991528		1.2102574		-0.0871312
Al		-0.318177585		0.836093164		-2.321186073
F		-1.669699804		-0.369914544		-2.217087277
F		2.101252192		-0.428273154		0.790435513
F		0.050654184		1.821582454		-3.797753594
F		-0.438595826		1.969794081		-0.795370495
F		2.640306153		2.470201509		-0.329843844
F		1.265568423		-0.017749272		-1.696211977
F		0.397086271		1.559268423		1.691277302
F		2.54486593		0.596315219		3.623995409
F		0.020266159		-1.200101859		2.811551386
12
-187.38518821
Al		1.282913262		0.050324516		2.441326237
Al		1.3215216		1.2312718		-0.0911794
Al		-0.317257985		0.836399764		-2.320123073
F		-1.668843804		-0.369930944		-2.215432077
F		2.139330192		-0.504430354		0.824939513
F		0.051725384		1.822502854		-3.797757994
F		-0.518141826		2.006994481		-0.822369895
F		2.692735753		2.519456509		-0.339332244
F		1.268351423		-0.076568072		-1.766731577
F		0.352835271		1.579130223		1.769301502
F		2.54581713		0.597294619		3.623633809
F		0.019975159		-1.199554859		2.809793986
12
-187.38518821
Al		1.283053862		0.051013916		2.440071237
Al		1.3438904		1.2522862		-0.0952276
Al		-0.316338385		0.836706364		-2.319060073
F		-1.667987804		-0.369947344		-2.213776877
F		2.177408192		-0.580587554		0.859443513
F		0.052796584		1.823423254		-3.797762394
F		-0.597687826		2.044194881		-0.849369295
F		2.745165353		2.568711509		-0.348820644
F		1.271134423		-0.135386872		-1.837251177
F		0.308584271		1.598992023		1.847325702
F		2.54676833		0.598274019		3.623272209
F		0.019684159		-1.199007859		2.808036586
12
-187.38518821
Al		1.283194462		0.051703316		2.438816237
Al		1.3662592		1.2733006		-0.0992758
Al		-0.315418785		0.837012964		-2.317997073
F		-1.667131804		-0.369963744		-2.212121677
F		2.215486192		-0.656744754		0.893947513
F		0.053867784		1.824343654		-3.797766794
F		-0.677233826		2.081395281		-0.876368695
F		2.797594953		2.617966509		-0.358309044
F		1.273917423		-0.194205672		-1.907770777
F		0.264333271		1.618853823		1.925349902
F		2.54771953		0.599253419		3.622910609
F		0.019393159		-1.198460859		2.806279186
