12
Properties=species:S:1:pos:R:3:forces:R:3 energy=-185.20425179 pbc="F F F"
Al    0.22014057199999998    -2.397298211    -1.521203161    -0.253335    1.986421    2.204242
Al    2.08271353    -0.29473685600000005    -1.1243956240000001    -0.552538    -0.58015    -0.902719
Al    -0.532529206    0.171890103    -1.848396783    0.644423    -1.072987    -0.517038
F    3.4818626879999997    -0.634254316    0.238205277    0.344187    0.062015    0.55435
F    0.273707026    -4.101367793    -2.455739336    0.047845    -1.895102    -1.733703
F    2.048214838    -1.785426576    -2.234030389    0.004959    0.247733    0.105876
F    1.3332230950000001    0.805183239    -2.5117866199999996    0.049532    0.076573    -0.022288
F    -1.190661822    2.093039131    -2.095976511    -0.622222    0.460618    0.233923
F    -1.2507253859999998    -1.211289852    -0.923355369    0.12484    0.192995    0.008688
F    -0.140772974    -1.2148874090000001    -3.103601281    0.085325    0.210162    0.140253
F    0.533365296    0.35649149799999996    -0.19810330199999998    0.077796    0.093706    -0.055145
F    1.080890934    -2.03447081    0.042835827    0.049187    0.218015    -0.016439
