12
Properties=species:S:1:pos:R:3:forces:R:3 energy=-186.33667333 pbc="F F F"
Al    0.489935193    -0.493705158    1.717744739    0.918864    -0.095635    -0.557595
Al    2.272246365    -1.757665872    -0.500231497    -0.608067    0.618342    0.874825
Al    -0.8105529810000001    -1.922455758    -1.145288143    -0.051876    -0.158107    -0.288882
F    3.486319707    -0.276156793    -0.53044918    -0.051354    0.677135    0.247054
F    -2.088473854    -0.7294328880000001    -1.8338415969999997    -0.458174    -0.40084    -0.508378
F    2.393812395    -3.610879694    -0.5739886430000001    -0.352429    -0.558317    0.407199
F    -1.5633935659999998    -3.633850202    -1.06157072    -0.53976    -0.071586    -0.585848
F    1.994188997    -1.4150203929999998    1.283310402    0.113263    0.129418    0.206907
F    0.930648164    -1.6598788819999999    -1.841815665    3.4e-05    0.003148    0.058136
F    0.24852475200000002    -1.098436563    3.435308289    0.519926    -0.111339    0.166903
F    0.349094571    1.289864299    1.3325141360000001    0.337864    0.043627    0.066976
F    -0.48808986800000004    -1.5681993829999998    0.574920814    0.171708    -0.075846    -0.087297
