      12
SCF Done            -186.33667333
Al            0.486856193        -0.597553158         1.760405739
Al            2.278219365        -1.727282872        -0.409408497
Al           -0.929204981        -1.893253758        -1.117822143
F             3.240981707        -0.238986793        -0.901748180
F            -1.993301854        -0.826937888        -2.154872597
F             2.412576395        -3.564477694        -0.250644643
F            -1.468230566        -3.618375202        -1.392924720
F             2.074332997        -1.386368393         1.375813402
F             0.812968164        -1.508734882        -1.492018665
F             0.438462752        -1.168129563         3.491278289
F             0.625910571         1.137977299         1.230586136
F            -0.743126868        -1.475212383         0.687125814
