12
Properties=species:S:1:pos:R:3:forces:R:3 energy=-176.70866447 pbc="F F F"
Al    1.30108468    -0.224789083    3.082689873    0.142471    -1.568977    3.731185
Al    1.3535717999999999    1.0104042    0.456754    -1.720181    -9.103993    16.832226
Al    -0.197005962    0.86255105    -2.150333373    5.211844    1.150688    7.320725
F    -1.8306383720000001    -0.511165253    -2.209897006    -3.956522    -3.321704    -0.156001
F    1.9670498529999998    -0.10471135300000001    0.5296428519999999    -2.502654    7.375781    -4.170659
F    0.08915573900000001    1.9295346899999999    -3.963096133    0.639872    2.447113    -4.188641
F    -0.49262101    1.9523761530000001    -0.909581249    -1.287042    -0.709302    -3.245681
F    2.673179757    2.521611112    -0.381081443    0.847061    1.118919    -0.866266
F    1.191342239    -0.011606995    -1.799744654    -2.238611    0.400504    -2.742665
F    0.546033917    1.552595229    1.2808072389999998    4.240882    -0.489079    -7.735384
F    1.9672365689999998    0.30376567600000004    3.176725237    -4.90071    -2.498311    -3.758851
F    0.569899875    -0.6976413519999999    2.742731871    5.523588    5.198361    -1.019987
