      12
SCF Done            -161.75525877
Al            1.276108062        -0.032604684         2.611421037
Al            1.438016800         1.110038200         0.396681000
Al           -0.207139585         0.865543364        -2.176106673
F            -1.829635004        -0.511086944        -2.208172877
F             2.019383792        -0.236030354         0.612733913
F             0.088484584         1.924868454        -3.954069994
F            -0.498053026         1.959232081        -0.894338295
F             2.585007753         2.422356109        -0.328891444
F             1.202189423        -0.023736872        -1.793106777
F             0.475954071         1.564047423         1.428608302
F             2.410428330         0.537592619         3.499233809
F             0.168092359        -1.053788859         2.768389586
