12
-187.38518821
Al		1.282631359		0.048942269		2.443842512
Al		1.276672156		1.189137928		-0.083062759
Al		-0.319101783		0.835785031		-2.322254388
F		-1.670560084		-0.369898062		-2.218750753
F		2.062983802		-0.351735168		0.755758993
F		0.049577628		1.820657452		-3.797749172
F		-0.358652096		1.932407679		-0.768236098
F		2.587614405		2.420700234		-0.320308002
F		1.262771508		0.041363622		-1.625339779
F		0.441558526		1.539307314		1.612862981
F		2.543909974		0.595330922		3.624358817
F		0.020558614		-1.200651594		2.813317573
