12
-187.38518821
Al		1.282621517		0.048894011		2.443930362
Al		1.27510634		1.18766692		-0.082779385
Al		-0.319166155		0.835763569		-2.322328798
F		-1.670620004		-0.369896914		-2.218866617
F		2.060318342		-0.346404164		0.753343713
F		0.049502644		1.820593024		-3.797748864
F		-0.353083876		1.929803651		-0.76634614
F		2.583944333		2.417252384		-0.319643814
F		1.262576698		0.045480938		-1.620403407
F		0.444656096		1.537916988		1.607401287
F		2.54384339		0.595262364		3.624384129
F		0.020578984		-1.200689884		2.813440591
