12
-187.38518821
Al		1.282630656		0.048938822		2.443848787
Al		1.276560312		1.189032856		-0.083042518
Al		-0.319106381		0.835783498		-2.322259703
F		-1.670564364		-0.36989798		-2.218759029
F		2.062793412		-0.351354382		0.755586473
F		0.049572272		1.82065285		-3.79774915
F		-0.358254366		1.932221677		-0.768101101
F		2.587352257		2.420453959		-0.32026056
F		1.262757593		0.041657716		-1.624987181
F		0.441779781		1.539208005		1.61247286
F		2.543905218		0.595326025		3.624360625
F		0.020560069		-1.200654329		2.81332636
