12
-187.38518821
Al		1.282610972		0.048842306		2.444024487
Al		1.27342868		1.18609084		-0.08247577
Al		-0.319235125		0.835740574		-2.322408523
F		-1.670684204		-0.369895684		-2.218990757
F		2.057462492		-0.340692374		0.750755913
F		0.049422304		1.820523994		-3.797748534
F		-0.347117926		1.927013621		-0.764321185
F		2.580012113		2.413558259		-0.318932184
F		1.262367973		0.049892348		-1.615114437
F		0.447974921		1.536427353		1.601549472
F		2.54377205		0.595188909		3.624411249
F		0.020600809		-1.200730909		2.813572396
