12
-187.38518821
Al		1.282606051		0.048818177		2.444068412
Al		1.272645772		1.185355336		-0.082334083
Al		-0.319267311		0.835729843		-2.322445728
F		-1.670714164		-0.36989511		-2.219048689
F		2.056129762		-0.338026872		0.749548273
F		0.049384812		1.82049178		-3.79774838
F		-0.344333816		1.925711607		-0.763376206
F		2.578177077		2.411834334		-0.31860009
F		1.262270568		0.051951006		-1.612646251
F		0.449523706		1.53573219		1.598818625
F		2.543738758		0.59515463		3.624423905
F		0.020610994		-1.200750054		2.813633905
