12
-187.38518821
Al		1.282603942		0.048807836		2.444087237
Al		1.27231024		1.18504012		-0.08227336
Al		-0.319281105		0.835725244		-2.322461673
F		-1.670727004		-0.369894864		-2.219073517
F		2.055558592		-0.336884514		0.749030713
F		0.049368744		1.820477974		-3.797748314
F		-0.343140626		1.925153601		-0.762971215
F		2.577390633		2.411095509		-0.318457764
F		1.262228823		0.052833288		-1.611588457
F		0.450187471		1.535434263		1.597648262
F		2.54372449		0.595139939		3.624429329
F		0.020615359		-1.200758259		2.813660266
