12
-187.38518821
Al		1.282600427		0.048790601		2.444118612
Al		1.27175102		1.18451476		-0.082172155
Al		-0.319304095		0.835717579		-2.322488248
F		-1.670748404		-0.369894454		-2.219114897
F		2.054606642		-0.334980584		0.748168113
F		0.049341964		1.820454964		-3.797748204
F		-0.341151976		1.924223591		-0.76229623
F		2.576079893		2.409864134		-0.318220554
F		1.262159248		0.054303758		-1.609825467
F		0.451293746		1.534937718		1.595697657
F		2.54370071		0.595115454		3.624438369
F		0.020622634		-1.200771934		2.813704201
