12
-187.38518821
Al		1.282599021		0.048783707		2.444131162
Al		1.271527332		1.184304616		-0.082131673
Al		-0.319313291		0.835714513		-2.322498878
F		-1.670756964		-0.36989429		-2.219131449
F		2.054225862		-0.334219012		0.747823073
F		0.049331252		1.82044576		-3.79774816
F		-0.340356516		1.923851587		-0.762026236
F		2.575555597		2.409371584		-0.31812567
F		1.262131418		0.054891946		-1.609120271
F		0.451736256		1.5347391		1.594917415
F		2.543691198		0.59510566		3.624441985
F		0.020625544		-1.200777404		2.813721775
