12
-187.38518821
Al		1.282598318		0.04878026		2.444137437
Al		1.271415488		1.184199544		-0.082111432
Al		-0.319317889		0.83571298		-2.322504193
F		-1.670761244		-0.369894208		-2.219139725
F		2.054035472		-0.333838226		0.747650553
F		0.049325896		1.820441158		-3.797748138
F		-0.339958786		1.923665585		-0.761891239
F		2.575293449		2.409125309		-0.318078228
F		1.262117503		0.05518604		-1.608767673
F		0.451957511		1.534639791		1.594527294
F		2.543686442		0.595100763		3.624443793
F		0.020626999		-1.200780139		2.813730562
