12
-187.38518821
Al		1.282596912		0.048773366		2.444149987
Al		1.2711918		1.1839894		-0.08207095
Al		-0.319327085		0.835709914		-2.322514823
F		-1.670769804		-0.369894044		-2.219156277
F		2.053654692		-0.333076654		0.747305513
F		0.049315184		1.820431954		-3.797748094
F		-0.339163326		1.923293581		-0.761621245
F		2.574769153		2.408632759		-0.317983344
F		1.262089673		0.055774228		-1.608062477
F		0.452400021		1.534441173		1.593747052
F		2.54367693		0.595090969		3.624447409
F		0.020629909		-1.200785609		2.813748136
