12
-187.38518821
Al		1.282596209		0.048769919		2.444156262
Al		1.271079956		1.183884328		-0.082050709
Al		-0.319331683		0.835708381		-2.322520138
F		-1.670774084		-0.369893962		-2.219164553
F		2.053464302		-0.332695868		0.747132993
F		0.049309828		1.820427352		-3.797748072
F		-0.338765596		1.923107579		-0.761486248
F		2.574507005		2.408386484		-0.317935902
F		1.262075758		0.056068322		-1.607709879
F		0.452621276		1.534341864		1.593356931
F		2.543672174		0.595086072		3.624449217
F		0.020631364		-1.200788344		2.813756923
