12
-187.38518821
Al		1.282594803		0.048763025		2.444168812
Al		1.270856268		1.183674184		-0.082010227
Al		-0.319340879		0.835705315		-2.322530768
F		-1.670782644		-0.369893798		-2.219181105
F		2.053083522		-0.331934296		0.746787953
F		0.049299116		1.820418148		-3.797748028
F		-0.337970136		1.922735575		-0.761216254
F		2.573982709		2.407893934		-0.317841018
F		1.262047928		0.05665651		-1.607004683
F		0.453063786		1.534143246		1.592576689
F		2.543662662		0.595076278		3.624452833
F		0.020634274		-1.200793814		2.813774497
