12
-187.38518821
Al		1.282589882		0.048738896		2.444212737
Al		1.27007336		1.18293868		-0.08186854
Al		-0.319373065		0.835694584		-2.322567973
F		-1.670812604		-0.369893224		-2.219239037
F		2.051750792		-0.329268794		0.745580313
F		0.049261624		1.820385934		-3.797747874
F		-0.335186026		1.921433561		-0.760271275
F		2.572147673		2.406170009		-0.317508924
F		1.261950523		0.058715168		-1.604536497
F		0.454612571		1.533448083		1.589845842
F		2.54362937		0.595041999		3.624465489
F		0.020644459		-1.200812959		2.813836006
