12
-187.38518821
Al		1.282582852		0.048704426		2.444275487
Al		1.26895492		1.18188796		-0.08166613
Al		-0.319419045		0.835679254		-2.322621123
F		-1.670855404		-0.369892404		-2.219321797
F		2.049846892		-0.325460934		0.743855113
F		0.049208064		1.820339914		-3.797747654
F		-0.331208726		1.919573541		-0.758921305
F		2.569526193		2.403707259		-0.317034504
F		1.261811373		0.061656108		-1.601010517
F		0.456825121		1.532454993		1.585944632
F		2.54358181		0.594993029		3.624483569
F		0.020659009		-1.200840309		2.813923876
