12
-187.38518821
Al		1.282580743		0.048694085		2.444294312
Al		1.268619388		1.181572744		-0.081605407
Al		-0.319432839		0.835674655		-2.322637068
F		-1.670868244		-0.369892158		-2.219346625
F		2.049275722		-0.324318576		0.743337553
F		0.049191996		1.820326108		-3.797747588
F		-0.330015536		1.919015535		-0.758516314
F		2.568739749		2.402968434		-0.316892178
F		1.261769628		0.06253839		-1.599952723
F		0.457488886		1.532157066		1.584774269
F		2.543567542		0.594978338		3.624488993
F		0.020663374		-1.200848514		2.813950237
