12
-187.38518821
Al		1.28258004		0.048690638		2.444300587
Al		1.268507544		1.181467672		-0.081585166
Al		-0.319437437		0.835673122		-2.322642383
F		-1.670872524		-0.369892076		-2.219354901
F		2.049085332		-0.32393779		0.743165033
F		0.04918664		1.820321506		-3.797747566
F		-0.329617806		1.918829533		-0.758381317
F		2.568477601		2.402722159		-0.316844736
F		1.261755713		0.062832484		-1.599600125
F		0.457710141		1.532057757		1.584384148
F		2.543562786		0.594973441		3.624490801
F		0.020664829		-1.200851249		2.813959024
