12
-187.38518821
Al		1.282578634		0.048683744		2.444313137
Al		1.268283856		1.181257528		-0.081544684
Al		-0.319446633		0.835670056		-2.322653013
F		-1.670881084		-0.369891912		-2.219371453
F		2.048704552		-0.323176218		0.742819993
F		0.049175928		1.820312302		-3.797747522
F		-0.328822346		1.918457529		-0.758111323
F		2.567953305		2.402229609		-0.316749852
F		1.261727883		0.063420672		-1.598894929
F		0.458152651		1.531859139		1.583603906
F		2.543553274		0.594963647		3.624494417
F		0.020667739		-1.200856719		2.813976598
