12
-187.38518821
Al		1.282626438		0.04891814		2.443886437
Al		1.275889248		1.188402424		-0.082921072
Al		-0.319133969		0.8357743		-2.322291593
F		-1.670590044		-0.369897488		-2.218808685
F		2.061651072		-0.349069666		0.754551353
F		0.049540136		1.820625238		-3.797749018
F		-0.355867986		1.931105665		-0.767291119
F		2.585779369		2.418976309		-0.319975908
F		1.262674103		0.04342228		-1.622871593
F		0.443107311		1.538612151		1.610132134
F		2.543876682		0.595296643		3.624371473
F		0.020568799		-1.200670739		2.813379082
