12
-187.38518821
Al		1.282565277		0.048618251		2.444432362
Al		1.26615882		1.17926116		-0.081160105
Al		-0.319533995		0.835640929		-2.322753998
F		-1.670962404		-0.369890354		-2.219528697
F		2.045087142		-0.315941284		0.739542113
F		0.049074164		1.820224864		-3.797747104
F		-0.321265476		1.914923491		-0.75554638
F		2.562972493		2.397550384		-0.315848454
F		1.261463498		0.069008458		-1.592195567
F		0.462356496		1.529972268		1.576191607
F		2.54346291		0.594870604		3.624528769
F		0.020695384		-1.200908684		2.814143551
