12
-187.38518821
Al		1.282563168		0.04860791		2.444451187
Al		1.265823288		1.178945944		-0.081099382
Al		-0.319547789		0.83563633		-2.322769943
F		-1.670975244		-0.369890108		-2.219553525
F		2.044515972		-0.314798926		0.739024553
F		0.049058096		1.820211058		-3.797747038
F		-0.320072286		1.914365485		-0.755141389
F		2.562186049		2.396811559		-0.315706128
F		1.261421753		0.06989074		-1.591137773
F		0.463020261		1.529674341		1.575021244
F		2.543448642		0.594855913		3.624534193
F		0.020699749		-1.200916889		2.814169912
