12
-187.38518821
Al		1.282641201		0.048990527		2.443754662
Al		1.278237972		1.190608936		-0.083346133
Al		-0.319037411		0.835806493		-2.322179978
F		-1.670500164		-0.36989921		-2.218634889
F		2.065649262		-0.357066172		0.758174273
F		0.049652612		1.82072188		-3.79774948
F		-0.364220316		1.935011707		-0.770126056
F		2.591284477		2.424148084		-0.32097219
F		1.262966318		0.037246306		-1.630276151
F		0.438460956		1.54069764		1.618324675
F		2.543976558		0.59539948		3.624333505
F		0.020538244		-1.200613304		2.813194555
