12
-187.38518821
Al		1.282642607		0.048997421		2.443742112
Al		1.27846166		1.19081908		-0.083386615
Al		-0.319028215		0.835809559		-2.322169348
F		-1.670491604		-0.369899374		-2.218618337
F		2.066030042		-0.357827744		0.758519313
F		0.049663324		1.820731084		-3.797749524
F		-0.365015776		1.935383711		-0.77039605
F		2.591808773		2.424640634		-0.321067074
F		1.262994148		0.036658118		-1.630981347
F		0.438018446		1.540896258		1.619104917
F		2.54398607		0.595409274		3.624329889
F		0.020535334		-1.200607834		2.813176981
