12
-187.38518821
Al		1.282646122		0.049014656		2.443710737
Al		1.27902088		1.19134444		-0.08348782
Al		-0.319005225		0.835817224		-2.322142773
F		-1.670470204		-0.369899784		-2.218576957
F		2.066981992		-0.359731674		0.759381913
F		0.049690104		1.820754094		-3.797749634
F		-0.367004426		1.936313721		-0.771071035
F		2.593119513		2.425872009		-0.321304284
F		1.263063723		0.035187648		-1.632744337
F		0.436912171		1.541392803		1.621055522
F		2.54400985		0.595433759		3.624320849
F		0.020528059		-1.200594159		2.813133046
