12
-187.38518821
Al		1.282648934		0.049028444		2.443685637
Al		1.279468256		1.191764728		-0.083568784
Al		-0.318986833		0.835823356		-2.322121513
F		-1.670453084		-0.369900112		-2.218543853
F		2.067743552		-0.361254818		0.760071993
F		0.049711528		1.820772502		-3.797749722
F		-0.368595346		1.937057729		-0.771611023
F		2.594168105		2.426857109		-0.321494052
F		1.263119383		0.034011272		-1.634154729
F		0.436027151		1.541790039		1.622616006
F		2.544028874		0.595453347		3.624313617
F		0.020522239		-1.200583219		2.813097898
