12
-187.38518821
Al		1.282651043		0.049038785		2.443666812
Al		1.279803788		1.192079944		-0.083629507
Al		-0.318973039		0.835827955		-2.322105568
F		-1.670440244		-0.369900358		-2.218519025
F		2.068314722		-0.362397176		0.760589553
F		0.049727596		1.820786308		-3.797749788
F		-0.369788536		1.937615735		-0.772016014
F		2.594954549		2.427595934		-0.321636378
F		1.263161128		0.03312899		-1.635212523
F		0.435363386		1.542087966		1.623786369
F		2.544043142		0.595468038		3.624308193
F		0.020517874		-1.200575014		2.813071537
