12
-187.38518821
Al		1.282634171		0.048956057		2.443817412
Al		1.277119532		1.189558216		-0.083143723
Al		-0.319083391		0.835791163		-2.322233128
F		-1.670542964		-0.36989839		-2.218717649
F		2.063745362		-0.353258312		0.756449073
F		0.049599052		1.82067586		-3.79774926
F		-0.360243016		1.933151687		-0.768776086
F		2.588662997		2.421685334		-0.32049777
F		1.262827168		0.040187246		-1.626750171
F		0.440673506		1.53970455		1.614423465
F		2.543928998		0.59535051		3.624351585
F		0.020552794		-1.200640654		2.813282425
