12
-187.38518821
Al		1.282656667		0.049066361		2.443616612
Al		1.28069854		1.19292052		-0.083791435
Al		-0.318936255		0.835840219		-2.322063048
F		-1.670406004		-0.369901014		-2.218452817
F		2.069837842		-0.365443464		0.761969713
F		0.049770444		1.820823124		-3.797749964
F		-0.372970376		1.939103751		-0.77309599
F		2.597051733		2.429566134		-0.322015914
F		1.263272448		0.030776238		-1.638033307
F		0.433593346		1.542882438		1.626907337
F		2.54408119		0.595507214		3.624293729
F		0.020506234		-1.200553134		2.813001241
