12
-187.38518821
Al		1.282658073		0.049073255		2.443604062
Al		1.280922228		1.193130664		-0.083831917
Al		-0.318927059		0.835843285		-2.322052418
F		-1.670397444		-0.369901178		-2.218436265
F		2.070218622		-0.366205036		0.762314753
F		0.049781156		1.820832328		-3.797750008
F		-0.373765836		1.939475755		-0.773365984
F		2.597576029		2.430058684		-0.322110798
F		1.263300278		0.03018805		-1.638738503
F		0.433150836		1.543081056		1.627687579
F		2.544090702		0.595517008		3.624290113
F		0.020503324		-1.200547664		2.812983667
