12
-187.38518821
Al		1.282659479		0.049080149		2.443591512
Al		1.281145916		1.193340808		-0.083872399
Al		-0.318917863		0.835846351		-2.322041788
F		-1.670388884		-0.369901342		-2.218419713
F		2.070599402		-0.366966608		0.762659793
F		0.049791868		1.820841532		-3.797750052
F		-0.374561296		1.939847759		-0.773635978
F		2.598100325		2.430551234		-0.322205682
F		1.263328108		0.029599862		-1.639443699
F		0.432708326		1.543279674		1.628467821
F		2.544100214		0.595526802		3.624286497
F		0.020500414		-1.200542194		2.812966093
