12
-187.38518821
Al		1.282634874		0.048959504		2.443811137
Al		1.277231376		1.189663288		-0.083163964
Al		-0.319078793		0.835792696		-2.322227813
F		-1.670538684		-0.369898472		-2.218709373
F		2.063935752		-0.353639098		0.756621593
F		0.049604408		1.820680462		-3.797749282
F		-0.360640746		1.933337689		-0.768911083
F		2.588925145		2.421931609		-0.320545212
F		1.262841083		0.039893152		-1.627102769
F		0.440452251		1.539803859		1.614813586
F		2.543933754		0.595355407		3.624349777
F		0.020551339		-1.200637919		2.813273638
