12
-187.38518821
Al		1.282660885		0.049087043		2.443578962
Al		1.281369604		1.193550952		-0.083912881
Al		-0.318908667		0.835849417		-2.322031158
F		-1.670380324		-0.369901506		-2.218403161
F		2.070980182		-0.36772818		0.763004833
F		0.04980258		1.820850736		-3.797750096
F		-0.375356756		1.940219763		-0.773905972
F		2.598624621		2.431043784		-0.322300566
F		1.263355938		0.029011674		-1.640148895
F		0.432265816		1.543478292		1.629248063
F		2.544109726		0.595536596		3.624282881
F		0.020497504		-1.200536724		2.812948519
