12
-187.38518821
Al		1.282662291		0.049093937		2.443566412
Al		1.281593292		1.193761096		-0.083953363
Al		-0.318899471		0.835852483		-2.322020528
F		-1.670371764		-0.36990167		-2.218386609
F		2.071360962		-0.368489752		0.763349873
F		0.049813292		1.82085994		-3.79775014
F		-0.376152216		1.940591767		-0.774175966
F		2.599148917		2.431536334		-0.32239545
F		1.263383768		0.028423486		-1.640854091
F		0.431823306		1.54367691		1.630028305
F		2.544119238		0.59554639		3.624279265
F		0.020494594		-1.200531254		2.812930945
