12
-187.38518821
Al		1.282662994		0.049097384		2.443560137
Al		1.281705136		1.193866168		-0.083973604
Al		-0.318894873		0.835854016		-2.322015213
F		-1.670367484		-0.369901752		-2.218378333
F		2.071551352		-0.368870538		0.763522393
F		0.049818648		1.820864542		-3.797750162
F		-0.376549946		1.940777769		-0.774310963
F		2.599411065		2.431782609		-0.322442892
F		1.263397683		0.028129392		-1.641206689
F		0.431602051		1.543776219		1.630418426
F		2.544123994		0.595551287		3.624277457
F		0.020493139		-1.200528519		2.812922158
