12
-187.38518821
Al		1.282665103		0.049107725		2.443541312
Al		1.282040668		1.194181384		-0.084034327
Al		-0.318881079		0.835858615		-2.321999268
F		-1.670354644		-0.369901998		-2.218353505
F		2.072122522		-0.370012896		0.764039953
F		0.049834716		1.820878348		-3.797750228
F		-0.377743136		1.941335775		-0.774715954
F		2.600197509		2.432521434		-0.322585218
F		1.263439428		0.02724711		-1.642264483
F		0.430938286		1.544074146		1.631588789
F		2.544138262		0.595565978		3.624272033
F		0.020488774		-1.200520314		2.812895797
