12
-187.38518821
Al		1.282665806		0.049111172		2.443535037
Al		1.282152512		1.194286456		-0.084054568
Al		-0.318876481		0.835860148		-2.321993953
F		-1.670350364		-0.36990208		-2.218345229
F		2.072312912		-0.370393682		0.764212473
F		0.049840072		1.82088295		-3.79775025
F		-0.378140866		1.941521777		-0.774850951
F		2.600459657		2.432767709		-0.32263266
F		1.263453343		0.026953016		-1.642617081
F		0.430717031		1.544173455		1.63197891
F		2.544143018		0.595570875		3.624270225
F		0.020487319		-1.200517579		2.81288701
