12
-187.38518821
Al		1.282635577		0.048962951		2.443804862
Al		1.27734322		1.18976836		-0.083184205
Al		-0.319074195		0.835794229		-2.322222498
F		-1.670534404		-0.369898554		-2.218701097
F		2.064126142		-0.354019884		0.756794113
F		0.049609764		1.820685064		-3.797749304
F		-0.361038476		1.933523691		-0.76904608
F		2.589187293		2.422177884		-0.320592654
F		1.262854998		0.039599058		-1.627455367
F		0.440230996		1.539903168		1.615203707
F		2.54393851		0.595360304		3.624347969
F		0.020549884		-1.200635184		2.813264851
