12
-187.38518821
Al		1.282669321		0.049128407		2.443503662
Al		1.282711732		1.194811816		-0.084155773
Al		-0.318853491		0.835867813		-2.321967378
F		-1.670328964		-0.36990249		-2.218303849
F		2.073264862		-0.372297612		0.765075073
F		0.049866852		1.82090596		-3.79775036
F		-0.380129516		1.942451787		-0.775525936
F		2.601770397		2.433999084		-0.32286987
F		1.263522918		0.025482546		-1.644380071
F		0.429610756		1.54467		1.633929515
F		2.544166798		0.59559536		3.624261185
F		0.020480044		-1.200503904		2.812843075
