12
-187.38518821
Al		1.282674242		0.049152536		2.443459737
Al		1.28349464		1.19554732		-0.08429746
Al		-0.318821305		0.835878544		-2.321930173
F		-1.670299004		-0.369903064		-2.218245917
F		2.074597592		-0.374963114		0.766282713
F		0.049904344		1.820938174		-3.797750514
F		-0.382913626		1.943753801		-0.776470915
F		2.603605433		2.435723009		-0.323201964
F		1.263620323		0.023423888		-1.646848257
F		0.428061971		1.545365163		1.636660362
F		2.54420009		0.595629639		3.624248529
F		0.020469859		-1.200484759		2.812781566
