12
-187.38518821
Al		1.282674945		0.049155983		2.443453462
Al		1.283606484		1.195652392		-0.084317701
Al		-0.318816707		0.835880077		-2.321924858
F		-1.670294724		-0.369903146		-2.218237641
F		2.074787982		-0.3753439		0.766455233
F		0.0499097		1.820942776		-3.797750536
F		-0.383311356		1.943939803		-0.776605912
F		2.603867581		2.435969284		-0.323249406
F		1.263634238		0.023129794		-1.647200855
F		0.427840716		1.545464472		1.637050483
F		2.544204846		0.595634536		3.624246721
F		0.020468404		-1.200482024		2.812772779
