12
-187.38518821
Al		1.282676351		0.049162877		2.443440912
Al		1.283830172		1.195862536		-0.084358183
Al		-0.318807511		0.835883143		-2.321914228
F		-1.670286164		-0.36990331		-2.218221089
F		2.075168762		-0.376105472		0.766800273
F		0.049920412		1.82095198		-3.79775058
F		-0.384106816		1.944311807		-0.776875906
F		2.604391877		2.436461834		-0.32334429
F		1.263662068		0.022541606		-1.647906051
F		0.427398206		1.54566309		1.637830725
F		2.544214358		0.59564433		3.624243105
F		0.020465494		-1.200476554		2.812755205
