12
-187.38518821
Al		1.282677757		0.049169771		2.443428362
Al		1.28405386		1.19607268		-0.084398665
Al		-0.318798315		0.835886209		-2.321903598
F		-1.670277604		-0.369903474		-2.218204537
F		2.075549542		-0.376867044		0.767145313
F		0.049931124		1.820961184		-3.797750624
F		-0.384902276		1.944683811		-0.7771459
F		2.604916173		2.436954384		-0.323439174
F		1.263689898		0.021953418		-1.648611247
F		0.426955696		1.545861708		1.638610967
F		2.54422387		0.595654124		3.624239489
F		0.020462584		-1.200471084		2.812737631
