12
-187.38518821
Al		1.282679866		0.049180112		2.443409537
Al		1.284389392		1.196387896		-0.084459388
Al		-0.318784521		0.835890808		-2.321887653
F		-1.670264764		-0.36990372		-2.218179709
F		2.076120712		-0.378009402		0.767662873
F		0.049947192		1.82097499		-3.79775069
F		-0.386095466		1.945241817		-0.777550891
F		2.605702617		2.437693209		-0.3235815
F		1.263731643		0.021071136		-1.649669041
F		0.426291931		1.546159635		1.63978133
F		2.544238138		0.595668815		3.624234065
F		0.020458219		-1.200462879		2.81271127
