12
-187.38518821
Al		1.282636983		0.048969845		2.443792312
Al		1.277566908		1.189978504		-0.083224687
Al		-0.319064999		0.835797295		-2.322211868
F		-1.670525844		-0.369898718		-2.218684545
F		2.064506922		-0.354781456		0.757139153
F		0.049620476		1.820694268		-3.797749348
F		-0.361833936		1.933895695		-0.769316074
F		2.589711589		2.422670434		-0.320687538
F		1.262882828		0.03901087		-1.628160563
F		0.439788486		1.540101786		1.615983949
F		2.543948022		0.595370098		3.624344353
F		0.020546974		-1.200629714		2.813247277
