12
-187.38518821
Al		1.282681975		0.049190453		2.443390712
Al		1.284724924		1.196703112		-0.084520111
Al		-0.318770727		0.835895407		-2.321871708
F		-1.670251924		-0.369903966		-2.218154881
F		2.076691882		-0.37915176		0.768180433
F		0.04996326		1.820988796		-3.797750756
F		-0.387288656		1.945799823		-0.777955882
F		2.606489061		2.438432034		-0.323723826
F		1.263773388		0.020188854		-1.650726835
F		0.425628166		1.546457562		1.640951693
F		2.544252406		0.595683506		3.624228641
F		0.020453854		-1.200454674		2.812684909
