12
-187.38518821
Al		1.282682678		0.0491939		2.443384437
Al		1.284836768		1.196808184		-0.084540352
Al		-0.318766129		0.83589694		-2.321866393
F		-1.670247644		-0.369904048		-2.218146605
F		2.076882272		-0.379532546		0.768352953
F		0.049968616		1.820993398		-3.797750778
F		-0.387686386		1.945985825		-0.778090879
F		2.606751209		2.438678309		-0.323771268
F		1.263787303		0.01989476		-1.651079433
F		0.425406911		1.546556871		1.641341814
F		2.544257162		0.595688403		3.624226833
F		0.020452399		-1.200451939		2.812676122
