12
-187.38518821
Al		1.28268549		0.049207688		2.443359337
Al		1.285284144		1.197228472		-0.084621316
Al		-0.318747737		0.835903072		-2.321845133
F		-1.670230524		-0.369904376		-2.218113501
F		2.077643832		-0.38105569		0.769043033
F		0.04999004		1.821011806		-3.797750866
F		-0.389277306		1.946729833		-0.778630867
F		2.607799801		2.439663409		-0.323961036
F		1.263842963		0.018718384		-1.652489825
F		0.424521891		1.546954107		1.642902298
F		2.544276186		0.595707991		3.624219601
F		0.020446579		-1.200440999		2.812640974
