12
-187.38518821
Al		1.282686896		0.049214582		2.443346787
Al		1.285507832		1.197438616		-0.084661798
Al		-0.318738541		0.835906138		-2.321834503
F		-1.670221964		-0.36990454		-2.218096949
F		2.078024612		-0.381817262		0.769388073
F		0.050000752		1.82102101		-3.79775091
F		-0.390072766		1.947101837		-0.778900861
F		2.608324097		2.440155959		-0.32405592
F		1.263870793		0.018130196		-1.653195021
F		0.424079381		1.547152725		1.64368254
F		2.544285698		0.595717785		3.624215985
F		0.020443669		-1.200435529		2.8126234
