12
-187.38518821
Al		1.282689005		0.049224923		2.443327962
Al		1.285843364		1.197753832		-0.084722521
Al		-0.318724747		0.835910737		-2.321818558
F		-1.670209124		-0.369904786		-2.218072121
F		2.078595782		-0.38295962		0.769905633
F		0.05001682		1.821034816		-3.797750976
F		-0.391265956		1.947659843		-0.779305852
F		2.609110541		2.440894784		-0.324198246
F		1.263912538		0.017247914		-1.654252815
F		0.423415616		1.547450652		1.644852903
F		2.544299966		0.595732476		3.624210561
F		0.020439304		-1.200427324		2.812597039
