12
-187.38518821
Al		1.282689708		0.04922837		2.443321687
Al		1.285955208		1.197858904		-0.084742762
Al		-0.318720149		0.83591227		-2.321813243
F		-1.670204844		-0.369904868		-2.218063845
F		2.078786172		-0.383340406		0.770078153
F		0.050022176		1.821039418		-3.797750998
F		-0.391663686		1.947845845		-0.779440849
F		2.609372689		2.441141059		-0.324245688
F		1.263926453		0.01695382		-1.654605413
F		0.423194361		1.547549961		1.645243024
F		2.544304722		0.595737373		3.624208753
F		0.020437849		-1.200424589		2.812588252
