12
-187.38518821
Al		1.28269252		0.049242158		2.443296587
Al		1.286402584		1.198279192		-0.084823726
Al		-0.318701757		0.835918402		-2.321791983
F		-1.670187724		-0.369905196		-2.218030741
F		2.079547732		-0.38486355		0.770768233
F		0.0500436		1.821057826		-3.797751086
F		-0.393254606		1.948589853		-0.779980837
F		2.610421281		2.442126159		-0.324435456
F		1.263982113		0.015777444		-1.656015805
F		0.422309341		1.547947197		1.646803508
F		2.544323746		0.595756961		3.624201521
F		0.020432029		-1.200413649		2.812553104
