12
-187.38518821
Al		1.282694629		0.049252499		2.443277762
Al		1.286738116		1.198594408		-0.084884449
Al		-0.318687963		0.835923001		-2.321776038
F		-1.670174884		-0.369905442		-2.218005913
F		2.080118902		-0.386005908		0.771285793
F		0.050059668		1.821071632		-3.797751152
F		-0.394447796		1.949147859		-0.780385828
F		2.611207725		2.442864984		-0.324577782
F		1.264023858		0.014895162		-1.657073599
F		0.421645576		1.548245124		1.647973871
F		2.544338014		0.595771652		3.624196097
F		0.020427664		-1.200405444		2.812526743
