12
-187.38518821
Al		1.282697441		0.049266287		2.443252662
Al		1.287185492		1.199014696		-0.084965413
Al		-0.318669571		0.835929133		-2.321754778
F		-1.670157764		-0.36990577		-2.217972809
F		2.080880462		-0.387529052		0.771975873
F		0.050081092		1.82109004		-3.79775124
F		-0.396038716		1.949891867		-0.780925816
F		2.612256317		2.443850084		-0.32476755
F		1.264079518		0.013718786		-1.658483991
F		0.420760556		1.54864236		1.649534355
F		2.544357038		0.59579124		3.624188865
F		0.020421844		-1.200394504		2.812491595
