12
-187.38518821
Al		1.282700956		0.049283522		2.443221287
Al		1.287744712		1.199540056		-0.085066618
Al		-0.318646581		0.835936798		-2.321728203
F		-1.670136364		-0.36990618		-2.217931429
F		2.081832412		-0.389432982		0.772838473
F		0.050107872		1.82111305		-3.79775135
F		-0.398027366		1.950821877		-0.781600801
F		2.613567057		2.445081459		-0.32500476
F		1.264149093		0.012248316		-1.660246981
F		0.419654281		1.549138905		1.65148496
F		2.544380818		0.595815725		3.624179825
F		0.020414569		-1.200380829		2.81244766
