12
-187.38518821
Al		1.282701659		0.049286969		2.443215012
Al		1.287856556		1.199645128		-0.085086859
Al		-0.318641983		0.835938331		-2.321722888
F		-1.670132084		-0.369906262		-2.217923153
F		2.082022802		-0.389813768		0.773010993
F		0.050113228		1.821117652		-3.797751372
F		-0.398425096		1.951007879		-0.781735798
F		2.613829205		2.445327734		-0.325052202
F		1.264163008		0.011954222		-1.660599579
F		0.419433026		1.549238214		1.651875081
F		2.544385574		0.595820622		3.624178017
F		0.020413114		-1.200378094		2.812438873
