12
-186.39349496
Al		-0.077900643		1.641058052		2.15524943
Al		2.525635086		2.607720945		1.766069815
Al		1.358435994		2.664110744		-0.646669354
F		1.000825508		3.094472176		2.834289743
F		-1.578317283		2.684924582		2.180333376
F		-0.493939011		-0.028497196		2.74569785
F		1.810169613		0.868798903		1.936724445
F		2.964288165		1.855433943		-0.071868366
F		1.086924129		3.032857263		-2.395499572
F		1.749351464		4.015514287		0.632022087
F		4.111132128		3.126719207		2.45934721
F		-0.010035531		1.80204904		0.213051553
