12
-186.39349496
Al		-0.077905658		1.641201292		2.155255335
Al		2.525772581		2.608012905		1.766243935
Al		1.358477149		2.663933824		-0.646485204
F		1.000625573		3.095214996		2.833670183
F		-1.578316983		2.685017112		2.182349471
F		-0.494352781		-0.029548661		2.74217366
F		1.810550743		0.869051558		1.938070535
F		2.963893575		1.854676988		-0.071417341
F		1.086585289		3.031880428		-2.395461452
F		1.750139749		4.015738137		0.631506497
F		4.111268708		3.127345022		2.459165225
F		-0.010201601		1.802588855		0.213607583
