12
-186.39349496
Al		-0.077906661		1.64122994		2.155256516
Al		2.52580008		2.608071297		1.766278759
Al		1.35848538		2.66389844		-0.646448374
F		1.000585586		3.09536356		2.833546271
F		-1.578316923		2.685035618		2.18275269
F		-0.494435535		-0.029758954		2.741468822
F		1.810626969		0.869102089		1.938339753
F		2.963814657		1.854525597		-0.071327136
F		1.086517521		3.031685061		-2.395453828
F		1.750297406		4.015782907		0.631403379
F		4.111296024		3.127470185		2.459128828
F		-0.010234815		1.802696818		0.213718789
