12
-186.39349496
Al		-0.077907664		1.641258588		2.155257697
Al		2.525827579		2.608129689		1.766313583
Al		1.358493611		2.663863056		-0.646411544
F		1.000545599		3.095512124		2.833422359
F		-1.578316863		2.685054124		2.183155909
F		-0.494518289		-0.029969247		2.740763984
F		1.810703195		0.86915262		1.938608971
F		2.963735739		1.854374206		-0.071236931
F		1.086449753		3.031489694		-2.395446204
F		1.750455063		4.015827677		0.631300261
F		4.11132334		3.127595348		2.459092431
F		-0.010268029		1.802804781		0.213829995
