12
-186.39349496
Al		-0.077892619		1.640828868		2.155239982
Al		2.525415094		2.607253809		1.765791223
Al		1.358370146		2.664393816		-0.646963994
F		1.001145404		3.093283664		2.835281039
F		-1.578317763		2.684776534		2.177107624
F		-0.493276979		-0.026814852		2.751336554
F		1.809559805		0.868394655		1.934570701
F		2.964919509		1.856645071		-0.072590006
F		1.087466273		3.034420199		-2.395560564
F		1.748090208		4.015156127		0.632847031
F		4.1109136		3.125717903		2.459638386
F		-0.009769819		1.801185336		0.212161905
