12
-186.39349496
Al		-0.077910673		1.641344532		2.15526124
Al		2.525910076		2.608304865		1.766418055
Al		1.358518304		2.663756904		-0.646301054
F		1.000425638		3.095957816		2.833050623
F		-1.578316683		2.685109642		2.184365566
F		-0.494766551		-0.030600126		2.73864947
F		1.810931873		0.869304213		1.939416625
F		2.963498985		1.853920033		-0.070966316
F		1.086246449		3.030903593		-2.395423332
F		1.750928034		4.015961987		0.630990907
F		4.111405288		3.127970837		2.45898324
F		-0.010367671		1.80312867		0.214163613
