12
-186.39349496
Al		-0.077913682		1.641430476		2.155264783
Al		2.525992573		2.608480041		1.766522527
Al		1.358542997		2.663650752		-0.646190564
F		1.000305677		3.096403508		2.832678887
F		-1.578316503		2.68516516		2.185575223
F		-0.495014813		-0.031231005		2.736534956
F		1.811160551		0.869455806		1.940224279
F		2.963262231		1.85346586		-0.070695701
F		1.086043145		3.030317492		-2.39540046
F		1.751401005		4.016096297		0.630681553
F		4.111487236		3.128346326		2.458874049
F		-0.010467313		1.803452559		0.214497231
