12
-186.39349496
Al		-0.077916691		1.64151642		2.155268326
Al		2.52607507		2.608655217		1.766626999
Al		1.35856769		2.6635446		-0.646080074
F		1.000185716		3.0968492		2.832307151
F		-1.578316323		2.685220678		2.18678488
F		-0.495263075		-0.031861884		2.734420442
F		1.811389229		0.869607399		1.941031933
F		2.963025477		1.853011687		-0.070425086
F		1.085839841		3.029731391		-2.395377588
F		1.751873976		4.016230607		0.630372199
F		4.111569184		3.128721815		2.458764858
F		-0.010566955		1.803776448		0.214830849
