12
-186.39349496
Al		-0.077917694		1.641545068		2.155269507
Al		2.526102569		2.608713609		1.766661823
Al		1.358575921		2.663509216		-0.646043244
F		1.000145729		3.096997764		2.832183239
F		-1.578316263		2.685239184		2.187188099
F		-0.495345829		-0.032072177		2.733715604
F		1.811465455		0.86965793		1.941301151
F		2.962946559		1.852860296		-0.070334881
F		1.085772073		3.029536024		-2.395369964
F		1.752031633		4.016275377		0.630269081
F		4.1115965		3.128846978		2.458728461
F		-0.010600169		1.803884411		0.214942055
