12
-186.39349496
Al		-0.077923712		1.641716956		2.155276593
Al		2.526267563		2.609063961		1.766870767
Al		1.358625307		2.663296912		-0.645822264
F		0.999905807		3.097889148		2.831439767
F		-1.578315903		2.68535022		2.189607413
F		-0.495842353		-0.033333935		2.729486576
F		1.811922811		0.869961116		1.942916459
F		2.962473051		1.85195195		-0.069793651
F		1.085365465		3.028363822		-2.39532422
F		1.752977575		4.016543997		0.629650373
F		4.111760396		3.129597956		2.458510079
F		-0.010799453		1.804532189		0.215609291
