12
-186.39349496
Al		-0.077894625		1.640886164		2.155242344
Al		2.525470092		2.607370593		1.765860871
Al		1.358386608		2.664323048		-0.646890334
F		1.00106543		3.093580792		2.835033215
F		-1.578317643		2.684813546		2.177914062
F		-0.493442487		-0.027235438		2.749926878
F		1.809712257		0.868495717		1.935109137
F		2.964761673		1.856342289		-0.072409596
F		1.087330737		3.034029465		-2.395545316
F		1.748405522		4.015245667		0.632640795
F		4.110968232		3.125968229		2.459565592
F		-0.009836247		1.801401262		0.212384317
