12
-186.39349496
Al		-0.077932739		1.641974788		2.155287222
Al		2.526515054		2.609589489		1.767184183
Al		1.358699386		2.662978456		-0.645490794
F		0.999545924		3.099226224		2.830324559
F		-1.578315363		2.685516774		2.193236384
F		-0.496587139		-0.035226572		2.723143034
F		1.812608845		0.870415895		1.945339421
F		2.961762789		1.850589431		-0.068981806
F		1.084755553		3.026605519		-2.395255604
F		1.754396488		4.016946927		0.628722311
F		4.11200624		3.130724423		2.458182506
F		-0.011098379		1.805503856		0.216610145
