12
-186.39349496
Al		-0.077934745		1.642032084		2.155289584
Al		2.526570052		2.609706273		1.767253831
Al		1.358715848		2.662907688		-0.645417134
F		0.99946595		3.099523352		2.830076735
F		-1.578315243		2.685553786		2.194042822
F		-0.496752647		-0.035647158		2.721733358
F		1.812761297		0.870516957		1.945877857
F		2.961604953		1.850286649		-0.068801396
F		1.084620017		3.026214785		-2.395240356
F		1.754711802		4.017036467		0.628516075
F		4.112060872		3.130974749		2.458109712
F		-0.011164807		1.805719782		0.216832557
