12
-186.39349496
Al		-0.077936751		1.64208938		2.155291946
Al		2.52662505		2.609823057		1.767323479
Al		1.35873231		2.66283692		-0.645343474
F		0.999385976		3.09982048		2.829828911
F		-1.578315123		2.685590798		2.19484926
F		-0.496918155		-0.036067744		2.720323682
F		1.812913749		0.870618019		1.946416293
F		2.961447117		1.849983867		-0.068620986
F		1.084484481		3.025824051		-2.395225108
F		1.755027116		4.017126007		0.628309839
F		4.112115504		3.131225075		2.458036918
F		-0.011231235		1.805935708		0.217054969
