12
-186.39349496
Al		-0.077938757		1.642146676		2.155294308
Al		2.526680048		2.609939841		1.767393127
Al		1.358748772		2.662766152		-0.645269814
F		0.999306002		3.100117608		2.829581087
F		-1.578315003		2.68562781		2.195655698
F		-0.497083663		-0.03648833		2.718914006
F		1.813066201		0.870719081		1.946954729
F		2.961289281		1.849681085		-0.068440576
F		1.084348945		3.025433317		-2.39520986
F		1.75534243		4.017215547		0.628103603
F		4.112170136		3.131475401		2.457964124
F		-0.011297663		1.806151634		0.217277381
