12
-186.39349496
Al		-0.07793976		1.642175324		2.155295489
Al		2.526707547		2.609998233		1.767427951
Al		1.358757003		2.662730768		-0.645232984
F		0.999266015		3.100266172		2.829457175
F		-1.578314943		2.685646316		2.196058917
F		-0.497166417		-0.036698623		2.718209168
F		1.813142427		0.870769612		1.947223947
F		2.961210363		1.849529694		-0.068350371
F		1.084281177		3.02523795		-2.395202236
F		1.755500087		4.017260317		0.628000485
F		4.112197452		3.131600564		2.457927727
F		-0.011330877		1.806259597		0.217388587
