12
-186.39349496
Al		-0.077942769		1.642261268		2.155299032
Al		2.526790044		2.610173409		1.767532423
Al		1.358781696		2.662624616		-0.645122494
F		0.999146054		3.100711864		2.829085439
F		-1.578314763		2.685701834		2.197268574
F		-0.497414679		-0.037329502		2.716094654
F		1.813371105		0.870921205		1.948031601
F		2.960973609		1.849075521		-0.068079756
F		1.084077873		3.024651849		-2.395179364
F		1.755973058		4.017394627		0.627691131
F		4.1122794		3.131976053		2.457818536
F		-0.011430519		1.806583486		0.217722205
