12
-186.39349496
Al		-0.07794979		1.642461804		2.155307299
Al		2.526982537		2.610582153		1.767776191
Al		1.358839313		2.662376928		-0.644864684
F		0.998866145		3.101751812		2.828218055
F		-1.578314343		2.685831376		2.200091107
F		-0.497993957		-0.038801553		2.711160788
F		1.813904687		0.871274922		1.949916127
F		2.960421183		1.848015784		-0.067448321
F		1.083603497		3.02328428		-2.395125996
F		1.757076657		4.017708017		0.626969305
F		4.112470612		3.132852194		2.457563757
F		-0.011663017		1.807339227		0.218500647
