12
-186.39349496
Al		-0.077955808		1.642633692		2.155314385
Al		2.527147531		2.610932505		1.767985135
Al		1.358888699		2.662164624		-0.644643704
F		0.998626223		3.102643196		2.827474583
F		-1.578313983		2.685942412		2.202510421
F		-0.498490481		-0.040063311		2.70693176
F		1.814362043		0.871578108		1.951531435
F		2.959947675		1.847107438		-0.066907091
F		1.083196889		3.022112078		-2.395080252
F		1.758022599		4.017976637		0.626350597
F		4.112634508		3.133603172		2.457345375
F		-0.011862301		1.807987005		0.219167883
