12
-186.39349496
Al		-0.077961826		1.64280558		2.155321471
Al		2.527312525		2.611282857		1.768194079
Al		1.358938085		2.66195232		-0.644422724
F		0.998386301		3.10353458		2.826731111
F		-1.578313623		2.686053448		2.204929735
F		-0.498987005		-0.041325069		2.702702732
F		1.814819399		0.871881294		1.953146743
F		2.959474167		1.846199092		-0.066365861
F		1.082790281		3.020939876		-2.395034508
F		1.758968541		4.018245257		0.625731889
F		4.112798404		3.13435415		2.457126993
F		-0.012061585		1.808634783		0.219835119
