12
-186.39349496
Al		-0.077966841		1.64294882		2.155327376
Al		2.52745002		2.611574817		1.768368199
Al		1.35897924		2.6617754		-0.644238574
F		0.998186366		3.1042774		2.826111551
F		-1.578313323		2.686145978		2.20694583
F		-0.499400775		-0.042376534		2.699178542
F		1.815200529		0.872133949		1.954492833
F		2.959079577		1.845442137		-0.065914836
F		1.082451441		3.019963041		-2.394996388
F		1.759756826		4.018469107		0.625216299
F		4.112934984		3.134979965		2.456945008
F		-0.012227655		1.809174598		0.220391149
