12
-186.39349496
Al		-0.07796985		1.643034764		2.155330919
Al		2.527532517		2.611749993		1.768472671
Al		1.359003933		2.661669248		-0.644128084
F		0.998066405		3.104723092		2.825739815
F		-1.578313143		2.686201496		2.208155487
F		-0.499649037		-0.043007413		2.697064028
F		1.815429207		0.872285542		1.955300487
F		2.958842823		1.844987964		-0.065644221
F		1.082248137		3.01937694		-2.394973516
F		1.760229797		4.018603417		0.624906945
F		4.113016932		3.135355454		2.456835817
F		-0.012327297		1.809498487		0.220724767
