12
-186.39349496
Al		-0.077971856		1.64309206		2.155333281
Al		2.527587515		2.611866777		1.768542319
Al		1.359020395		2.66159848		-0.644054424
F		0.997986431		3.10502022		2.825491991
F		-1.578313023		2.686238508		2.208961925
F		-0.499814545		-0.043427999		2.695654352
F		1.815581659		0.872386604		1.955838923
F		2.958684987		1.844685182		-0.065463811
F		1.082112601		3.018986206		-2.394958268
F		1.760545111		4.018692957		0.624700709
F		4.113071564		3.13560578		2.456763023
F		-0.012393725		1.809714413		0.220947179
