12
-186.39349496
Al		-0.077974865		1.643178004		2.155336824
Al		2.527670012		2.612041953		1.768646791
Al		1.359045088		2.661492328		-0.643943934
F		0.99786647		3.105465912		2.825120255
F		-1.578312843		2.686294026		2.210171582
F		-0.500062807		-0.044058878		2.693539838
F		1.815810337		0.872538197		1.956646577
F		2.958448233		1.844231009		-0.065193196
F		1.081909297		3.018400105		-2.394935396
F		1.761018082		4.018827267		0.624391355
F		4.113153512		3.135981269		2.456653832
F		-0.012493367		1.810038302		0.221280797
