12
-186.39349496
Al		-0.077977874		1.643263948		2.155340367
Al		2.527752509		2.612217129		1.768751263
Al		1.359069781		2.661386176		-0.643833444
F		0.997746509		3.105911604		2.824748519
F		-1.578312663		2.686349544		2.211381239
F		-0.500311069		-0.044689757		2.691425324
F		1.816039015		0.87268979		1.957454231
F		2.958211479		1.843776836		-0.064922581
F		1.081705993		3.017814004		-2.394912524
F		1.761491053		4.018961577		0.624082001
F		4.11323546		3.136356758		2.456544641
F		-0.012593009		1.810362191		0.221614415
