12
-186.39349496
Al		-0.077978877		1.643292596		2.155341548
Al		2.527780008		2.612275521		1.768786087
Al		1.359078012		2.661350792		-0.643796614
F		0.997706522		3.106060168		2.824624607
F		-1.578312603		2.68636805		2.211784458
F		-0.500393823		-0.04490005		2.690720486
F		1.816115241		0.872740321		1.957723449
F		2.958132561		1.843625445		-0.064832376
F		1.081638225		3.017618637		-2.3949049
F		1.76164871		4.019006347		0.623978883
F		4.113262776		3.136481921		2.456508244
F		-0.012626223		1.810470154		0.221725621
