12
-186.39349496
Al		-0.077986901		1.64352178		2.155350996
Al		2.528		2.612742657		1.769064679
Al		1.35914386		2.66106772		-0.643501974
F		0.997386626		3.10724868		2.823633311
F		-1.578312123		2.686516098		2.21501021
F		-0.501055855		-0.046582394		2.685081782
F		1.816725049		0.873144569		1.959877193
F		2.957501217		1.842414317		-0.064110736
F		1.081096081		3.016055701		-2.394843908
F		1.762909966		4.019364507		0.623153939
F		4.113481304		3.137483225		2.456217068
F		-0.012891935		1.811333858		0.222615269
