12
-186.39349496
Al		-0.07787958		1.640456444		2.155224629
Al		2.525057607		2.606494713		1.765338511
Al		1.358263143		2.664853808		-0.647442784
F		1.001665235		3.091352332		2.836891895
F		-1.578318543		2.684535956		2.171865777
F		-0.492201177		-0.024081043		2.760499448
F		1.808568867		0.867737752		1.931070867
F		2.965945443		1.858613154		-0.073762671
F		1.088347257		3.03695997		-2.395659676
F		1.746040667		4.014574117		0.634187565
F		4.110558492		3.124090784		2.460111547
F		-0.009338037		1.799781817		0.210716227
