12
-186.39349496
Al		-0.077876571		1.6403705		2.155221086
Al		2.52497511		2.606319537		1.765234039
Al		1.35823845		2.66495996		-0.647553274
F		1.001785196		3.09090664		2.837263631
F		-1.578318723		2.684480438		2.17065612
F		-0.491952915		-0.023450164		2.762613962
F		1.808340189		0.867586159		1.930263213
F		2.966182197		1.859067327		-0.074033286
F		1.088550561		3.037546071		-2.395682548
F		1.745567696		4.014439807		0.634496919
F		4.110476544		3.123715295		2.460220738
F		-0.009238395		1.799457928		0.210382609
