12
-186.39349496
Al		-0.077874565		1.640313204		2.155218724
Al		2.524920112		2.606202753		1.765164391
Al		1.358221988		2.665030728		-0.647626934
F		1.00186517		3.090609512		2.837511455
F		-1.578318843		2.684443426		2.169849682
F		-0.491787407		-0.023029578		2.764023638
F		1.808187737		0.867485097		1.929724777
F		2.966340033		1.859370109		-0.074213696
F		1.088686097		3.037936805		-2.395697796
F		1.745252382		4.014350267		0.634703155
F		4.110421912		3.123464969		2.460293532
F		-0.009171967		1.799242002		0.210160197
