12
-186.39349496
Al		-0.077873562		1.640284556		2.155217543
Al		2.524892613		2.606144361		1.765129567
Al		1.358213757		2.665066112		-0.647663764
F		1.001905157		3.090460948		2.837635367
F		-1.578318903		2.68442492		2.169446463
F		-0.491704653		-0.022819285		2.764728476
F		1.808111511		0.867434566		1.929455559
F		2.966418951		1.8595215		-0.074303901
F		1.088753865		3.038132172		-2.39570542
F		1.745094725		4.014305497		0.634806273
F		4.110394596		3.123339806		2.460329929
F		-0.009138753		1.799134039		0.210048991
