12
-186.39349496
Al		-0.077871556		1.64022726		2.155215181
Al		2.524837615		2.606027577		1.765059919
Al		1.358197295		2.66513688		-0.647737424
F		1.001985131		3.09016382		2.837883191
F		-1.578319023		2.684387908		2.168640025
F		-0.491539145		-0.022398699		2.766138152
F		1.807959059		0.867333504		1.928917123
F		2.966576787		1.859824282		-0.074484311
F		1.088889401		3.038522906		-2.395720668
F		1.744779411		4.014215957		0.635012509
F		4.110339964		3.12308948		2.460402723
F		-0.009072325		1.798918113		0.209826579
