12
-186.39349496
Al		-0.07786955		1.640169964		2.155212819
Al		2.524782617		2.605910793		1.764990271
Al		1.358180833		2.665207648		-0.647811084
F		1.002065105		3.089866692		2.838131015
F		-1.578319143		2.684350896		2.167833587
F		-0.491373637		-0.021978113		2.767547828
F		1.807806607		0.867232442		1.928378687
F		2.966734623		1.860127064		-0.074664721
F		1.089024937		3.03891364		-2.395735916
F		1.744464097		4.014126417		0.635218745
F		4.110285332		3.122839154		2.460475517
F		-0.009005897		1.798702187		0.209604167
