12
-186.39349496
Al		-0.077861526		1.63994078		2.155203371
Al		2.524562625		2.605443657		1.764711679
Al		1.358114985		2.66549072		-0.648105724
F		1.002385001		3.08867818		2.839122311
F		-1.578319623		2.684202848		2.164607835
F		-0.490711605		-0.020295769		2.773186532
F		1.807196799		0.866828194		1.926224943
F		2.967365967		1.861338192		-0.075386361
F		1.089567081		3.040476576		-2.395796908
F		1.743202841		4.013768257		0.636043689
F		4.110066804		3.12183785		2.460766693
F		-0.008740185		1.797838483		0.208714519
