12
-186.39349496
Al		-0.077860523		1.639912132		2.15520219
Al		2.524535126		2.605385265		1.764676855
Al		1.358106754		2.665526104		-0.648142554
F		1.002424988		3.088529616		2.839246223
F		-1.578319683		2.684184342		2.164204616
F		-0.490628851		-0.020085476		2.77389137
F		1.807120573		0.866777663		1.925955725
F		2.967444885		1.861489583		-0.075476566
F		1.089634849		3.040671943		-2.395804532
F		1.743045184		4.013723487		0.636146807
F		4.110039488		3.121712687		2.46080309
F		-0.008706971		1.79773052		0.208603313
