12
-186.39349496
Al		-0.077854505		1.639740244		2.155195104
Al		2.524370132		2.605034913		1.764467911
Al		1.358057368		2.665738408		-0.648363534
F		1.00266491		3.087638232		2.839989695
F		-1.578320043		2.684073306		2.161785302
F		-0.490132327		-0.018823718		2.778120398
F		1.806663217		0.866474477		1.924340417
F		2.967918393		1.862397929		-0.076017796
F		1.090041457		3.041844145		-2.395850276
F		1.742099242		4.013454867		0.636765515
F		4.109875592		3.120961709		2.461021472
F		-0.008507687		1.797082742		0.207936077
