12
-186.39349496
Al		-0.077853502		1.639711596		2.155193923
Al		2.524342633		2.604976521		1.764433087
Al		1.358049137		2.665773792		-0.648400364
F		1.002704897		3.087489668		2.840113607
F		-1.578320103		2.6840548		2.161382083
F		-0.490049573		-0.018613425		2.778825236
F		1.806586991		0.866423946		1.924071199
F		2.967997311		1.86254932		-0.076108001
F		1.090109225		3.042039512		-2.3958579
F		1.741941585		4.013410097		0.636868633
F		4.109848276		3.120836546		2.461057869
F		-0.008474473		1.796974779		0.207824871
