12
-186.39349496
Al		-0.077886601		1.64065698		2.155232896
Al		2.5252501		2.606903457		1.765582279
Al		1.35832076		2.66460612		-0.647184974
F		1.001385326		3.09239228		2.836024511
F		-1.578318123		2.684665498		2.17468831
F		-0.492780455		-0.025553094		2.755565582
F		1.809102449		0.868091469		1.932955393
F		2.965393017		1.857553417		-0.073131236
F		1.087872881		3.035592401		-2.395606308
F		1.747144266		4.014887507		0.633465739
F		4.110749704		3.124966925		2.459856768
F		-0.009570535		1.800537558		0.211494669
