12
-186.39349496
Al		-0.077845478		1.639482412		2.155184475
Al		2.524122641		2.604509385		1.764154495
Al		1.357983289		2.666056864		-0.648695004
F		1.003024793		3.086301156		2.841104903
F		-1.578320583		2.683906752		2.158156331
F		-0.489387541		-0.016931081		2.78446394
F		1.805977183		0.866019698		1.921917455
F		2.968628655		1.863760448		-0.076829641
F		1.090651369		3.043602448		-2.395918892
F		1.740680329		4.013051937		0.637693577
F		4.109629748		3.119835242		2.461349045
F		-0.008208761		1.796111075		0.206935223
