12
-186.39349496
Al		-0.077842469		1.639396468		2.155180932
Al		2.524040144		2.604334209		1.764050023
Al		1.357958596		2.666163016		-0.648805494
F		1.003144754		3.085855464		2.841476639
F		-1.578320763		2.683851234		2.156946674
F		-0.489139279		-0.016300202		2.786578454
F		1.805748505		0.865868105		1.921109801
F		2.968865409		1.864214621		-0.077100256
F		1.090854673		3.044188549		-2.395941764
F		1.740207358		4.012917627		0.638002931
F		4.1095478		3.119459753		2.461458236
F		-0.008109119		1.795787186		0.206601605
