12
-186.39349496
Al		-0.077837454		1.639253228		2.155175027
Al		2.523902649		2.604042249		1.763875903
Al		1.357917441		2.666339936		-0.648989644
F		1.003344689		3.085112644		2.842096199
F		-1.578321063		2.683758704		2.154930579
F		-0.488725509		-0.015248737		2.790102644
F		1.805367375		0.86561545		1.919763711
F		2.969259999		1.864971576		-0.077551281
F		1.091193513		3.045165384		-2.395979884
F		1.739419073		4.012693777		0.638518521
F		4.10941122		3.118833938		2.461640221
F		-0.007943049		1.795247371		0.206045575
