12
-186.39349496
Al		-0.077833442		1.639138636		2.155170303
Al		2.523792653		2.603808681		1.763736607
Al		1.357884517		2.666481472		-0.649136964
F		1.003504637		3.084518388		2.842591847
F		-1.578321303		2.68368468		2.153317703
F		-0.488394493		-0.014407565		2.792921996
F		1.805062471		0.865413326		1.918686839
F		2.969575671		1.86557714		-0.077912101
F		1.091464585		3.045946852		-2.39601038
F		1.738788445		4.012514697		0.638930993
F		4.109301956		3.118333286		2.461785809
F		-0.007810193		1.794815519		0.205600751
