12
-186.39349496
Al		-0.077830433		1.639052692		2.15516676
Al		2.523710156		2.603633505		1.763632135
Al		1.357859824		2.666587624		-0.649247454
F		1.003624598		3.084072696		2.842963583
F		-1.578321483		2.683629162		2.152108046
F		-0.488146231		-0.013776686		2.79503651
F		1.804833793		0.865261733		1.917879185
F		2.969812425		1.866031313		-0.078182716
F		1.091667889		3.046532953		-2.396033252
F		1.738315474		4.012380387		0.639240347
F		4.109220008		3.117957797		2.461895
F		-0.007710551		1.79449163		0.205267133
