12
-186.39349496
Al		-0.077824415		1.638880804		2.155159674
Al		2.523545162		2.603283153		1.763423191
Al		1.357810438		2.666799928		-0.649468434
F		1.00386452		3.083181312		2.843707055
F		-1.578321843		2.683518126		2.149688732
F		-0.487649707		-0.012514928		2.799265538
F		1.804376437		0.864958547		1.916263877
F		2.970285933		1.866939659		-0.078723946
F		1.092074497		3.047705155		-2.396078996
F		1.737369532		4.012111767		0.639859055
F		4.109056112		3.117206819		2.462113382
F		-0.007511267		1.793843852		0.204599897
