12
-186.39349496
Al		-0.077820403		1.638766212		2.15515495
Al		2.523435166		2.603049585		1.763283895
Al		1.357777514		2.666941464		-0.649615754
F		1.004024468		3.082587056		2.844202703
F		-1.578322083		2.683444102		2.148075856
F		-0.487318691		-0.011673756		2.80208489
F		1.804071533		0.864756423		1.915187005
F		2.970601605		1.867545223		-0.079084766
F		1.092345569		3.048486623		-2.396109492
F		1.736738904		4.011932687		0.640271527
F		4.108946848		3.116706167		2.46225897
F		-0.007378411		1.793412		0.204155073
