12
-186.39349496
Al		-0.077813382		1.638565676		2.155146683
Al		2.523242673		2.602640841		1.763040127
Al		1.357719897		2.667189152		-0.649873564
F		1.004304377		3.081547108		2.845070087
F		-1.578322503		2.68331456		2.145253323
F		-0.486739413		-0.010201705		2.807018756
F		1.803537951		0.864402706		1.913302479
F		2.971154031		1.86860496		-0.079716201
F		1.092819945		3.049854192		-2.39616286
F		1.735635305		4.011619297		0.640993353
F		4.108755636		3.115830026		2.462513749
F		-0.007145913		1.792656259		0.203376631
