12
-186.39349496
Al		-0.077811376		1.63850838		2.155144321
Al		2.523187675		2.602524057		1.762970479
Al		1.357703435		2.66725992		-0.649947224
F		1.004384351		3.08124998		2.845317911
F		-1.578322623		2.683277548		2.144446885
F		-0.486573905		-0.009781119		2.808428432
F		1.803385499		0.864301644		1.912764043
F		2.971311867		1.868907742		-0.079896611
F		1.092955481		3.050244926		-2.396178108
F		1.735319991		4.011529757		0.641199589
F		4.108701004		3.1155797		2.462586543
F		-0.007079485		1.792440333		0.203154219
