12
-186.39349496
Al		-0.077882589		1.640542388		2.155228172
Al		2.525140104		2.606669889		1.765442983
Al		1.358287836		2.664747656		-0.647332294
F		1.001545274		3.091798024		2.836520159
F		-1.578318363		2.684591474		2.173075434
F		-0.492449439		-0.024711922		2.758384934
F		1.808797545		0.867889345		1.931878521
F		2.965708689		1.858158981		-0.073492056
F		1.088143953		3.036373869		-2.395636804
F		1.746513638		4.014708427		0.633878211
F		4.11064044		3.124466273		2.460002356
F		-0.009437679		1.800105706		0.211049845
