12
-186.39349496
Al		-0.077805358		1.638336492		2.155137235
Al		2.523022681		2.602173705		1.762761535
Al		1.357654049		2.667472224		-0.650168204
F		1.004624273		3.080358596		2.846061383
F		-1.578322983		2.683166512		2.142027571
F		-0.486077381		-0.008519361		2.81265746
F		1.802928143		0.863998458		1.911148735
F		2.971785375		1.869816088		-0.080437841
F		1.093362089		3.051417128		-2.396223852
F		1.734374049		4.011261137		0.641818297
F		4.108537108		3.114828722		2.462804925
F		-0.006880201		1.791792555		0.202486983
