12
-186.39349496
Al		-0.077804355		1.638307844		2.155136054
Al		2.522995182		2.602115313		1.762726711
Al		1.357645818		2.667507608		-0.650205034
F		1.00466426		3.080210032		2.846185295
F		-1.578323043		2.683148006		2.141624352
F		-0.485994627		-0.008309068		2.813362298
F		1.802851917		0.863947927		1.910879517
F		2.971864293		1.869967479		-0.080528046
F		1.093429857		3.051612495		-2.396231476
F		1.734216392		4.011216367		0.641921415
F		4.108509792		3.114703559		2.462841322
F		-0.006846987		1.791684592		0.202375777
