12
-186.39349496
Al		-0.077803352		1.638279196		2.155134873
Al		2.522967683		2.602056921		1.762691887
Al		1.357637587		2.667542992		-0.650241864
F		1.004704247		3.080061468		2.846309207
F		-1.578323103		2.6831295		2.141221133
F		-0.485911873		-0.008098775		2.814067136
F		1.802775691		0.863897396		1.910610299
F		2.971943211		1.87011887		-0.080618251
F		1.093497625		3.051807862		-2.3962391
F		1.734058735		4.011171597		0.642024533
F		4.108482476		3.114578396		2.462877719
F		-0.006813773		1.791576629		0.202264571
