12
-186.39349496
Al		-0.077794325		1.638021364		2.155124244
Al		2.522720192		2.601531393		1.762378471
Al		1.357563508		2.667861448		-0.650573334
F		1.00506413		3.078724392		2.847424415
F		-1.578323643		2.682962946		2.137592162
F		-0.485167087		-0.006206138		2.820410678
F		1.802089657		0.863442617		1.908187337
F		2.972653473		1.871481389		-0.081430096
F		1.094107537		3.053566165		-2.396307716
F		1.732639822		4.010768667		0.642952595
F		4.108236632		3.113451929		2.463205292
F		-0.006514847		1.790604962		0.201263717
