12
-186.39349496
Al		-0.077793322		1.637992716		2.155123063
Al		2.522692693		2.601473001		1.762343647
Al		1.357555277		2.667896832		-0.650610164
F		1.005104117		3.078575828		2.847548327
F		-1.578323703		2.68294444		2.137188943
F		-0.485084333		-0.005995845		2.821115516
F		1.802013431		0.863392086		1.907918119
F		2.972732391		1.87163278		-0.081520301
F		1.094175305		3.053761532		-2.39631534
F		1.732482165		4.010723897		0.643055713
F		4.108209316		3.113326766		2.463241689
F		-0.006481633		1.790496999		0.201152511
