      12
SCF Done            -184.59413748
Al            1.536420680        -0.247044683         2.309680073
Al            1.068129000         1.432594000         0.027215000
Al           -0.065309562         0.539796250        -2.456404773
F            -1.824584172        -0.190257453        -2.137320606
F             2.083405253        -0.308529953         0.488528452
F            -0.095018861         1.989307290        -3.721311333
F            -0.453233810         1.868692753        -1.015068049
F             2.661104557         2.335541512        -0.359064443
F             1.440881239         0.007104405        -1.423352254
F             0.505019117         1.397955429         1.836299039
F             2.399312969         0.763981076         3.700795437
F            -0.133472325        -1.021008352         2.894729071
