      12
SCF Done            -186.34395097
Al           -1.709836761         2.557692920        -1.222854291
Al           -0.618434355         0.004704706        -2.435029874
Al           -2.103625976        -0.341541918        -0.436052337
F            -0.688788541         3.701243136        -0.240872657
F            -3.120984247         3.153940993        -2.204848592
F            -1.381038480        -1.676228527        -1.713359461
F            -2.416122962         1.448033083         0.134844062
F            -3.063205263        -1.308672132         0.761618253
F             0.446782898        -0.508837341        -3.807927504
F            -0.428588425         1.900940414        -2.452666031
F            -2.529368157         0.457998151        -2.222051228
F            -0.216743868         0.177519239        -0.494735408
