12
Properties=species:S:1:pos:R:3:forces:R:3 energy=-187.24475565 pbc="F F F"
Al    0.381341193    -0.784840158    1.539075739    0.0    -0.0    -0.0
Al    2.0789933649999996    -1.710167872    -0.440028497    -0.0    1e-06    0.0
Al    -0.657378981    -1.745310758    -0.838668143    0.0    1e-06    0.0
F    3.292635707    -0.747498793    -1.00804718    0.0    -0.0    0.0
F    -1.682367854    -0.811390888    -1.732814597    -0.0    -0.0    0.0
F    2.695196395    -3.254371694    -0.505615643    -0.0    1e-06    0.0
F    -1.190232566    -3.304271202    -1.07165172    -0.0    1e-06    0.0
F    1.758598997    -1.356199393    1.0345654020000001    -0.0    -0.0    -0.0
F    0.8008951639999999    -1.6034758820000001    -1.268690665    0.0    0.0    -0.0
F    0.150638752    -1.046928563    3.145782289    -0.0    1e-06    0.0
F    0.394380571    0.890184299    1.3019041359999999    0.0    -0.0    -0.0
F    -0.779950868    -1.388801383    0.664744814    0.0    -0.0    -0.0
