      12
SCF Done            -187.24475565
Al            0.349627193        -0.599315158         1.740413739
Al            2.350503365        -1.788743872        -0.519453497
Al           -0.892884981        -1.830397758        -0.991956143
F             3.476158707        -0.496330793        -1.112779180
F            -1.834644854        -0.564535888        -1.886466597
F             2.736837395        -3.562341694        -0.491864643
F            -1.226307566        -3.613239202        -1.069222720
F             1.896719997        -1.414979393         1.210821402
F             0.831810164        -1.508492882        -1.489273665
F             0.108911752        -1.172361563         3.443268289
F             0.406285571         1.135156299         1.198591136
F            -0.961087868        -1.451681383         0.794490814
