12
Properties=species:S:1:pos:R:3:forces:R:3 energy=-187.38394716 pbc="F F F"
Al    1.34396568    0.023247717    2.460233673    -0.03652    0.033234    -0.001935
Al    1.227641    1.1430740000000001    -0.07419    0.003589    0.003372    -0.000649
Al    -0.344693362    0.89505905    -2.345114373    0.031354    -0.038089    0.002875
F    -1.890266572    -0.11629145299999999    -2.227461806    -0.020265    -0.019959    0.003153
F    2.245930253    -0.283713153    0.809355852    0.021564    -0.023625    -0.025793
F    0.30728713900000004    1.68969309    -3.892009533    0.004717    0.031919    -0.032953
F    -0.29395961000000004    2.097029353    -0.866649049    -0.017348    0.027585    0.02503
F    2.546829557    2.382379512    -0.312927443    -0.000665    -0.000625    0.00012
F    1.091496239    -0.131185795    -1.5070304540000001    -0.005697    0.000379    -0.013106
F    0.242362717    1.3638180290000002    1.561598839    0.002597    -0.003291    0.013666
F    2.444643169    0.875143676    3.689944437    0.037744    0.007973    0.025265
F    0.261271075    -1.434515352    2.8182292710000003    -0.02107    -0.018873    0.004327
