12
Properties=species:S:1:pos:R:3:forces:R:3 energy=-184.79382930 pbc="F F F"
Al    -0.056738657    1.691137996    2.378206521    1.109437    1.218821    1.536951
Al    2.372015296    2.648325625    1.501535975    -1.096513    0.717807    -2.010209
Al    1.546836858    2.666610781    -0.47882785299999997    1.922997    0.819831    0.806048
F    0.8281689520000001    3.302629319    3.070476432    -0.365712    0.608538    0.132755
F    -1.6075875469999998    2.718187343    2.2038560950000003    -1.053781    0.675135    -0.315346
F    -0.54965626    -0.066484618    2.75731026    -0.550509    -1.351925    -0.19959
F    2.194009569    0.910263185    1.918733834    1.97548    -0.098788    -0.735979
F    3.265446742    1.462864872    -0.457886654    0.575044    -0.637725    1.024712
F    1.098984714    2.929205552    -2.0672166040000004    -0.671033    -0.27748    -0.355935
F    1.769908268    4.336341587    0.9120964650000001    0.858498    -0.19158    1.627358
F    3.783588766    3.0089198109999997    2.3200475679999997    -0.701853    -0.418659    -0.457419
F    -0.20912760000000002    1.7393037679999999    -0.273780895    -2.002054    -1.063975    -1.053347
