12
Properties=species:S:1:pos:R:3:forces:R:3 energy=-184.97027209 pbc="F F F"
Al    0.342432572    -2.236951211    -2.213224661    1.641714    2.950403    -1.512343
Al    2.14802653    -0.703433856    -0.778363624    -1.239033    -0.868517    -0.008066
Al    -0.35440120599999997    0.34425610300000004    -1.318347283    0.195405    -1.525848    0.714619
F    3.669717688    0.23235518400000002    0.009816776999999999    0.811989    0.174688    -0.086194
F    -0.589194974    -3.965806293    -1.9912428359999998    -1.411982    -2.710143    1.048561
F    2.245510838    -1.839424076    -2.363088389    0.010743    0.261232    0.121635
F    1.436219095    0.553544739    -2.0412356199999997    -0.003708    0.085023    0.145022
F    -1.449552822    1.240227131    -2.854815511    -0.351185    0.705204    -0.665949
F    -1.075941886    -1.329132852    -0.9875833690000001    0.192715    0.269827    0.021601
F    -0.144440974    -0.814772909    -3.2574807810000004    0.079341    0.236319    0.159406
F    0.636854796    0.392410998    0.288619198    0.011716    0.093293    0.090781
F    1.004108934    -2.10583781    -0.263876173    0.062286    0.328519    -0.029072
