      12
SCF Done            -184.97027209
Al            0.427274572        -2.289770211        -2.156005661
Al            1.963195530        -0.558980856        -0.652481624
Al           -0.415421206         0.288873103        -1.628148283
F             3.706419688        -0.159517816        -0.207792223
F            -0.339367974        -4.075671293        -1.855647836
F             2.236356838        -1.760914076        -2.338761389
F             1.423719095         0.568848739        -2.098001620
F            -1.392002822         1.675311131        -2.373195511
F            -1.049059886        -1.361807852        -1.068919369
F            -0.130463974        -0.909243909        -3.318781781
F             0.439900796         0.442107998         0.159683198
F             1.029644934        -2.098746810        -0.208490173
