     125
SCF Done           -3703.48121849
O            -0.577343762         1.227794208         2.328405392
Fe            3.149015481        -4.582898474        -2.708620207
Fe            1.555391772        -3.174412306        -4.772247412
Fe           -1.319077590        -3.041982454        -5.061038106
Fe            5.675209748        -2.014838646        -2.051108582
Fe            2.679284464        -0.324839784        -2.961940343
Fe            6.129516332         0.731775084        -2.645063658
Fe           -0.276837384        -4.007826243        -2.081316887
Fe            5.016843069        -4.330629487        -0.504082849
Fe           -3.729013257        -3.915266688        -3.616555647
Fe            0.239521611        -0.586206456        -5.005915131
Fe            2.256595858        -4.739698345         0.072209373
Fe            3.750385053         2.880058851        -3.372272965
Fe           -2.315611458        -2.102310288        -0.946292244
Fe            7.109839154         1.071198654         0.499408469
Fe            1.245435826         2.032991298        -4.426926820
Fe            6.565649333        -2.008710949         1.032460597
Fe           -3.177488401        -0.534476799        -3.893370730
Fe           -3.058987355        -5.049928871        -1.104174432
Fe           -0.918035374        -5.210516835         0.840260714
Fe            4.084137494        -2.817445901         1.997082869
Fe            5.314969622         2.868778000        -0.906588478
Fe            0.973616621         4.649022652        -2.894290530
Fe           -1.741229818         2.507148153        -3.216255110
Fe            1.008930000        -1.654349738        -0.041027173
Fe           -5.370777562        -1.226949935        -2.421940355
Fe            3.741867608        -0.106719462        -0.014135488
Fe           -4.867667223         1.840932389        -3.147035281
Fe            1.061315436        -3.488683901         2.511379001
Fe           -1.788943034         6.018322613        -2.599861448
Fe           -5.223724130        -2.111302774         0.549786234
Fe            2.626902015         3.688926013        -0.150505498
Fe            5.100309961         2.719605223         1.938852292
Fe            1.064819760         1.420977924         1.209286734
Fe           -3.454817745        -4.133908092         1.776559188
Fe           -4.416831675         4.807860643        -2.501942274
Fe           -2.919741945         0.781245896        -0.742211179
Fe            1.842319497        -0.780965870         3.067701262
Fe           -0.024726218         5.379499594         0.265685392
Fe           -2.439070718         4.000844934        -0.448877590
Fe           -1.211150559        -0.494516780         1.727900444
Fe            2.654866930         2.310028072         3.701733253
Fe           -4.418113974        -1.913351158         3.351540420
Fe           -5.013966514         2.744915592         0.093707976
Fe            0.555750647         4.258291879         2.947416002
Fe           -1.959134362         2.630061617         2.142490316
Fe           -0.095629108         1.898603708         4.473829204
Fe           -4.895492741         0.904439316         2.514184699
Fe           -2.707093291         0.351431074         4.424578314
O             2.805882677        -4.410106534        -4.449472297
O             4.625045623        -3.484339857        -2.263141791
O            -0.028089610        -3.840182648        -3.901553456
O             3.675550121        -5.543405793        -1.158467889
O             1.957579753        -1.445728361        -4.235013031
O            -2.826358401        -3.966215790        -5.184240123
O             0.243332039        -2.333798626        -5.922014410
O             4.449037295        -0.359747555        -2.063017164
O             1.558770078        -4.237832078        -1.641967295
O             5.489944096         2.412139399        -3.035681125
O             6.825071953        -0.906634835        -2.906260319
O             0.747641057         0.471738338        -3.139881450
O             6.459307214        -3.128154917        -0.555268125
O            -2.241700936        -3.523022354        -2.254837442
O            -4.233303008        -5.244263417        -2.462116094
O            -1.623832759        -1.153100559        -4.614462079
O             3.950849652        -4.455652615         1.035084411
O             2.995412567         1.298186483        -3.960066836
O             6.895949507         1.765844121        -1.220834044
O            -0.456443064        -2.453305380        -0.854238497
O            -0.003464000         0.071477000         0.156129000
O             2.233416162         3.788851942        -4.029383805
O             0.383004052         1.076750346        -5.697145288
O            -1.069684076        -5.388086155        -0.987029821
O            -4.418135517        -2.184130250        -3.676365785
O             5.857554709        -2.844447564         2.465038802
O             7.604017856        -0.585118728         0.811846340
O             4.636925761        -1.606575062         0.517263914
O             3.749449293         3.622926187        -1.684204554
O            -3.078552846         1.444878836        -3.898685241
O            -3.643495001        -3.169597211        -0.027616583
O             1.970562774        -2.976180976         0.851162871
O             1.531227959         2.153440362        -0.492620340
O            -5.250038882         0.130319043        -3.667145649
O            -0.141481067         6.003727019        -3.288252347
O             6.843204938         2.559960628         1.483473948
O            -0.020723105         3.049622433        -3.390507250
O            -1.512016328        -3.807836640         1.915145913
O            -2.914076450        -5.628866526         0.750236861
O             4.852666406         1.345221171         0.292359603
O            -3.240203726        -0.719734535        -1.941571155
O             0.869287856        -5.196488233         1.381098399
O            -6.146130792        -1.695516139        -0.913402641
O            -5.435582714         3.538222022        -3.262327993
O            -1.460164155         1.676218608        -1.528471247
O            -2.528331089         3.999748477        -2.417382712
O             2.691850317        -2.431767040         3.216374308
O             1.333321181         4.857542048        -0.961525156
O            -3.541405069         6.328095628        -2.958678259
O             4.379985137         3.832189142         0.610166565
O             2.496569334         0.189903294         1.581427852
O            -2.127489771        -1.145785190         3.326426522
O            -3.316863124        -3.407891296         3.727961004
O             1.820005842         3.013875892         1.967066860
O            -4.683243974         1.472196897        -1.260309108
O            -5.150610785        -0.798550863         1.905582908
O             0.147112300        -3.489146962         4.086689503
O            -1.536711287         5.750059874        -0.736743154
O             4.397263673         2.446605330         3.547200602
O            -1.146677614         3.888653178         0.935005471
O            -4.397460297         4.382558499        -0.586290834
O            -5.111617311        -3.248831385         2.066434057
O            -2.570100339        -0.659626878         0.452936101
O             1.566077184         0.768791321         4.060539026
O             0.757981366         5.680313087         1.864881500
O            -3.087807697         2.352382438         0.533308287
O             1.293160096         3.313305343         4.512704025
O            -1.322818391         0.950929606         5.376723129
O            -1.007015588         3.405211047         3.574009618
O            -4.479340563        -0.306699542         4.325168176
O            -5.796816204         2.160849313         1.593279874
O            -3.243999569         1.596550824         3.079921452
Fe           -1.502039894        -2.949851996         3.651431350
Fe            0.334452988         1.035709446        -1.464338223
O             2.152175733        -0.549183427        -1.096068370
O             0.319292798        -1.553682980         2.124483430
