12
Properties=species:S:1:pos:R:3:forces:R:3 energy=-185.89409341 pbc="F F F"
Al    -0.266817757    1.8990713959999999    2.078131221    -0.420708    0.731578    -0.428865
Al    2.576656196    2.750820125    1.815704275    -1.133604    0.471513    -0.527994
Al    1.456503758    2.248816381    -0.5174113530000001    1.591886    -0.901861    0.692137
F    0.826842452    3.363176519    2.6647611319999998    0.004929    0.041662    0.219445
F    -1.9931191469999998    2.488672543    2.4321850950000004    -0.265142    -0.244879    -0.111082
F    -0.15913535999999998    0.093660182    2.61060766    0.187776    -0.534801    0.121119
F    1.711590269    1.078050985    1.790332134    -0.233401    -0.183582    -0.137686
F    3.2280295420000003    1.938677172    0.030926646000000002    -0.42401    0.305952    0.36583
F    1.254542214    3.3642951520000004    -2.106441404    -0.412796    0.360359    -0.623061
F    1.600072868    3.8472354870000003    0.600751665    0.042386    -0.142151    0.443004
F    4.441326066    2.664790711    2.264503568    1.611949    0.021257    -0.285043
F    -0.2222906    1.6306132679999998    0.125195305    -0.549266    0.074953    0.272197
