12
-187.38518821
Al		1.30636368		0.021266517		2.431290873
Al		1.276784		1.189243		-0.083083
Al		-0.342829962		0.86346465		-2.309703573
F		-1.778241372		-0.244306453		-2.161817206
F		2.171260253		-0.299001553		0.772430652
F		0.132962139		1.72341569		-3.841824933
F		-0.30528421		2.031530553		-0.814161049
F		2.587876557		2.420946512		-0.320355443
F		1.180669239		-0.024802195		-1.564915854
F		0.361601917		1.453227229		1.581767439
F		2.460533569		0.692579876		3.668433437
F		0.128241875		-1.326241352		2.756383671
