12
-187.38518821
Al		1.223301062		0.118142716		2.475199237
Al		1.276784		1.189243		-0.083083
Al		-0.259766185		0.766589564		-2.353612073
F		-1.401341804		-0.683878144		-2.361053477
F		1.792959192		-0.484901954		0.714683513
F		-0.158867016		2.063775054		-3.687560194
F		-0.493463826		1.685251681		-0.653896095
F		2.587876553		2.420946509		-0.320355444
F		1.468075423		0.205748528		-1.777633377
F		0.640675271		1.754854623		1.691967102
F		2.75236573		0.352223819		3.514167009
F		-0.248656841		-0.886668859		2.955618786
