12
-187.38518821
Al		1.29449768		0.035105917		2.437563473
Al		1.276784		1.189243		-0.083083
Al		-0.330963762		0.84962545		-2.315976173
F		-1.724398772		-0.307102453		-2.190279406
F		2.117217253		-0.325558753		0.764181052
F		0.091272139		1.77203849		-3.819787133
F		-0.33216701		1.982062153		-0.791266049
F		2.587876557		2.420946512		-0.320355443
F		1.221727239		0.008133605		-1.595304054
F		0.401469517		1.496316829		1.597510239
F		2.502223769		0.643957476		3.646395437
F		0.074399275		-1.263445352		2.784845871
