12
-187.38518821
Al		1.25889968		0.076624117		2.456381273
Al		1.276784		1.189243		-0.083083
Al		-0.295365162		0.80810785		-2.334793973
F		-1.562870972		-0.495490453		-2.275666006
F		1.955088253		-0.405230353		0.739432252
F		-0.033797861		1.91790689		-3.753673733
F		-0.41281541		1.833656953		-0.722581049
F		2.587876557		2.420946512		-0.320355443
F		1.344901239		0.106941005		-1.686468654
F		0.521072317		1.625585629		1.644738639
F		2.627294369		0.498090276		3.580281437
F		-0.087128525		-1.075057352		2.870232471
