12
-187.38518821
Al		1.258899662		0.076624516		2.456381437
Al		1.276784		1.189243		-0.083083
Al		-0.295364785		0.808107764		-2.334794273
F		-1.562870204		-0.495490144		-2.275666877
F		1.955088192		-0.405230354		0.739432313
F		-0.033797016		1.917907254		-3.753673594
F		-0.412815426		1.833656881		-0.722581095
F		2.587876553		2.420946509		-0.320355444
F		1.344901423		0.106941128		-1.686468777
F		0.521072471		1.625585823		1.644738702
F		2.62729513		0.498091019		3.580281009
F		-0.087128441		-1.075056859		2.870232786
