12
-187.38518821
Al		1.27076568		0.062784717		2.450108673
Al		1.276784		1.189243		-0.083083
Al		-0.307231362		0.82194705		-2.328521373
F		-1.616713572		-0.432694453		-2.247203806
F		2.009131253		-0.378673153		0.747681852
F		0.007892139		1.86928409		-3.775711533
F		-0.38593261		1.883125353		-0.745476049
F		2.587876557		2.420946512		-0.320355443
F		1.303843239		0.074005205		-1.656080454
F		0.481204717		1.582496029		1.628995839
F		2.585604169		0.546712676		3.602319437
F		-0.033285925		-1.137853352		2.841770271
