12
-187.38518821
Al		1.24703368		0.090463517		2.462653873
Al		1.276784		1.189243		-0.083083
Al		-0.283498962		0.79426865		-2.341066573
F		-1.509028372		-0.558286453		-2.304128206
F		1.901045253		-0.431787553		0.731182652
F		-0.075487861		1.96652969		-3.731635933
F		-0.43969821		1.784188553		-0.699686049
F		2.587876557		2.420946512		-0.320355443
F		1.385959239		0.139876805		-1.716856854
F		0.560939917		1.668675229		1.660481439
F		2.668984569		0.449467876		3.558243437
F		-0.140971125		-1.012261352		2.898694671
