12
-187.38518821
Al		1.223301062		0.118142716		2.475199237
Al		1.276784		1.189243		-0.083083
Al		-0.259766185		0.766589564		-2.353612073
F		-1.401341804		-0.683878144		-2.361053477
F		1.792959192		-0.484901954		0.714683513
F		-0.158867016		2.063775054		-3.687560194
F		-0.493463826		1.685251681		-0.653896095
F		2.587876553		2.420946509		-0.320355444
F		1.468075423		0.205748528		-1.777633377
F		0.640675271		1.754854623		1.691967102
F		2.75236573		0.352223819		3.514167009
F		-0.248656841		-0.886668859		2.955618786
12
-187.38518821
Al		1.235167262		0.104303316		2.468926637
Al		1.276784		1.189243		-0.083083
Al		-0.271632385		0.780428964		-2.347339473
F		-1.455184604		-0.621082144		-2.332591277
F		1.847002192		-0.458344754		0.722933113
F		-0.117177016		2.015152454		-3.709597994
F		-0.466581026		1.734720081		-0.676791095
F		2.587876553		2.420946509		-0.320355444
F		1.427017423		0.172812728		-1.747245177
F		0.600807671		1.711765023		1.676224302
F		2.71067553		0.400846219		3.536205009
F		-0.194814041		-0.949464859		2.927156786
12
-187.38518821
Al		1.247033462		0.090463916		2.462654037
Al		1.276784		1.189243		-0.083083
Al		-0.283498585		0.794268364		-2.341066873
F		-1.509027404		-0.558286144		-2.304129077
F		1.901045192		-0.431787554		0.731182713
F		-0.075487016		1.966529854		-3.731635794
F		-0.439698226		1.784188481		-0.699686095
F		2.587876553		2.420946509		-0.320355444
F		1.385959423		0.139876928		-1.716856977
F		0.560940071		1.668675423		1.660481502
F		2.66898533		0.449468619		3.558243009
F		-0.140971241		-1.012260859		2.898694786
12
-187.38518821
Al		1.258899662		0.076624516		2.456381437
Al		1.276784		1.189243		-0.083083
Al		-0.295364785		0.808107764		-2.334794273
F		-1.562870204		-0.495490144		-2.275666877
F		1.955088192		-0.405230354		0.739432313
F		-0.033797016		1.917907254		-3.753673594
F		-0.412815426		1.833656881		-0.722581095
F		2.587876553		2.420946509		-0.320355444
F		1.344901423		0.106941128		-1.686468777
F		0.521072471		1.625585823		1.644738702
F		2.62729513		0.498091019		3.580281009
F		-0.087128441		-1.075056859		2.870232786
12
-187.38518821
Al		1.270765862		0.062785116		2.450108837
Al		1.276784		1.189243		-0.083083
Al		-0.307230985		0.821947164		-2.328521673
F		-1.616713004		-0.432694144		-2.247204677
F		2.009131192		-0.378673154		0.747681913
F		0.007892984		1.869284654		-3.775711394
F		-0.385932626		1.883125281		-0.745476095
F		2.587876553		2.420946509		-0.320355444
F		1.303843423		0.074005328		-1.656080577
F		0.481204871		1.582496223		1.628995902
F		2.58560493		0.546713419		3.602319009
F		-0.033285641		-1.137852859		2.841770786
12
-187.38518821
Al		1.282632062		0.048945716		2.443836237
Al		1.276784		1.189243		-0.083083
Al		-0.319097185		0.835786564		-2.322249073
F		-1.670555804		-0.369898144		-2.218742477
F		2.063174192		-0.352115954		0.755931513
F		0.049582984		1.820662054		-3.797749194
F		-0.359049826		1.932593681		-0.768371095
F		2.587876553		2.420946509		-0.320355444
F		1.262785423		0.041069528		-1.625692377
F		0.441337271		1.539406623		1.613253102
F		2.54391473		0.595335819		3.624357009
F		0.020557159		-1.200648859		2.813308786
12
-187.38518821
Al		1.294498262		0.035106316		2.437563637
Al		1.276784		1.189243		-0.083083
Al		-0.330963385		0.849625964		-2.315976473
F		-1.724398604		-0.307102144		-2.190280277
F		2.117217192		-0.325558754		0.764181113
F		0.091272984		1.772039454		-3.819786994
F		-0.332167026		1.982062081		-0.791266095
F		2.587876553		2.420946509		-0.320355444
F		1.221727423		0.008133728		-1.595304177
F		0.401469671		1.496317023		1.597510302
F		2.50222453		0.643958219		3.646395009
F		0.074399959		-1.263444859		2.784846786
12
-187.38518821
Al		1.306364462		0.021266916		2.431291037
Al		1.276784		1.189243		-0.083083
Al		-0.342829585		0.863465364		-2.309703873
F		-1.778241404		-0.244306144		-2.161818077
F		2.171260192		-0.299001554		0.772430713
F		0.132962984		1.723416854		-3.841824794
F		-0.305284226		2.031530481		-0.814161095
F		2.587876553		2.420946509		-0.320355444
F		1.180669423		-0.024802072		-1.564915977
F		0.361602071		1.453227423		1.581767502
F		2.46053433		0.692580619		3.668433009
F		0.128242759		-1.326240859		2.756384786
12
-187.38518821
Al		1.318230662		0.007427516		2.425018437
Al		1.276784		1.189243		-0.083083
Al		-0.354695785		0.877304764		-2.303431273
F		-1.832084204		-0.181510144		-2.133355877
F		2.225303192		-0.272444354		0.780680313
F		0.174652984		1.674794254		-3.863862594
F		-0.278401426		2.080998881		-0.837056095
F		2.587876553		2.420946509		-0.320355444
F		1.139611423		-0.057737872		-1.534527777
F		0.321734471		1.410137823		1.566024702
F		2.41884413		0.741203019		3.690471009
F		0.182085559		-1.389036859		2.727922786
12
-187.38518821
Al		1.330096862		-0.006411884		2.418745837
Al		1.276784		1.189243		-0.083083
Al		-0.366561985		0.891144164		-2.297158673
F		-1.885927004		-0.118714144		-2.104893677
F		2.279346192		-0.245887154		0.788929913
F		0.216342984		1.626171654		-3.885900394
F		-0.251518626		2.130467281		-0.859951095
F		2.587876553		2.420946509		-0.320355444
F		1.098553423		-0.090673672		-1.504139577
F		0.281866871		1.367048223		1.550281902
F		2.37715393		0.789825419		3.712509009
F		0.235928359		-1.451832859		2.699460786
