12
-187.38518821
Al		1.282625032		0.048911246		2.443898987
Al		1.27566556		1.18819228		-0.08288059
Al		-0.319143165		0.835771234		-2.322302223
F		-1.670598604		-0.369897324		-2.218825237
F		2.061270292		-0.348308094		0.754206313
F		0.049529424		1.820616034		-3.797748974
F		-0.355072526		1.930733661		-0.767021125
F		2.585255073		2.418483759		-0.319881024
F		1.262646273		0.044010468		-1.622166397
F		0.443549821		1.538413533		1.609351892
F		2.54386717		0.595286849		3.624375089
F		0.020571709		-1.200676209		2.813396656
