12
-187.38518821
Al		1.282624329		0.048907799		2.443905262
Al		1.275553716		1.188087208		-0.082860349
Al		-0.319147763		0.835769701		-2.322307538
F		-1.670602884		-0.369897242		-2.218833513
F		2.061079902		-0.347927308		0.754033793
F		0.049524068		1.820611432		-3.797748952
F		-0.354674796		1.930547659		-0.766886128
F		2.584992925		2.418237484		-0.319833582
F		1.262632358		0.044304562		-1.621813799
F		0.443771076		1.538314224		1.608961771
F		2.543862414		0.595281952		3.624376897
F		0.020573164		-1.200678944		2.813405443
