12
-187.38518821
Al		1.282620111		0.048887117		2.443942912
Al		1.274882652		1.187456776		-0.082738903
Al		-0.319175351		0.835760503		-2.322339428
F		-1.670628564		-0.36989675		-2.218883169
F		2.059937562		-0.345642592		0.752998673
F		0.049491932		1.82058382		-3.79774882
F		-0.352288416		1.929431647		-0.766076146
F		2.583420037		2.416759834		-0.31954893
F		1.262548868		0.046069126		-1.619698211
F		0.445098606		1.53771837		1.606621045
F		2.543833878		0.59525257		3.624387745
F		0.020581894		-1.200695354		2.813458165
