12
-187.38518821
Al		1.282619408		0.04888367		2.443949187
Al		1.274770808		1.187351704		-0.082718662
Al		-0.319179949		0.83575897		-2.322344743
F		-1.670632844		-0.369896668		-2.218891445
F		2.059747172		-0.345261806		0.752826153
F		0.049486576		1.820579218		-3.797748798
F		-0.351890686		1.929245645		-0.765941149
F		2.583157889		2.416513559		-0.319501488
F		1.262534953		0.04636322		-1.619345613
F		0.445319861		1.537619061		1.606230924
F		2.543829122		0.595247673		3.624389553
F		0.020583349		-1.200698089		2.813466952
