12
-187.38518821
Al		1.282618705		0.048880223		2.443955462
Al		1.274658964		1.187246632		-0.082698421
Al		-0.319184547		0.835757437		-2.322350058
F		-1.670637124		-0.369896586		-2.218899721
F		2.059556782		-0.34488102		0.752653633
F		0.04948122		1.820574616		-3.797748776
F		-0.351492956		1.929059643		-0.765806152
F		2.582895741		2.416267284		-0.319454046
F		1.262521038		0.046657314		-1.618993015
F		0.445541116		1.537519752		1.605840803
F		2.543824366		0.595242776		3.624391361
F		0.020584804		-1.200700824		2.813475739
