12
-187.38518821
Al		1.282615893		0.048866435		2.443980562
Al		1.274211588		1.186826344		-0.082617457
Al		-0.319202939		0.835751305		-2.322371318
F		-1.670654244		-0.369896258		-2.218932825
F		2.058795222		-0.343357876		0.751963553
F		0.049459796		1.820556208		-3.797748688
F		-0.349902036		1.928315635		-0.765266164
F		2.581847149		2.415282184		-0.319264278
F		1.262465378		0.04783369		-1.617582623
F		0.446426136		1.537122516		1.604280319
F		2.543805342		0.595223188		3.624398593
F		0.020590624		-1.200711764		2.813510887
