12
-187.38518821
Al		1.282614487		0.048859541		2.443993112
Al		1.2739879		1.1866162		-0.082576975
Al		-0.319212135		0.835748239		-2.322381948
F		-1.670662804		-0.369896094		-2.218949377
F		2.058414442		-0.342596304		0.751618513
F		0.049449084		1.820547004		-3.797748644
F		-0.349106576		1.927943631		-0.76499617
F		2.581322853		2.414789634		-0.319169394
F		1.262437548		0.048421878		-1.616877427
F		0.446868646		1.536923898		1.603500077
F		2.54379583		0.595213394		3.624402209
F		0.020593534		-1.200717234		2.813528461
