12
-187.38518821
Al		1.282613784		0.048856094		2.443999387
Al		1.273876056		1.186511128		-0.082556734
Al		-0.319216733		0.835746706		-2.322387263
F		-1.670667084		-0.369896012		-2.218957653
F		2.058224052		-0.342215518		0.751445993
F		0.049443728		1.820542402		-3.797748622
F		-0.348708846		1.927757629		-0.764861173
F		2.581060705		2.414543359		-0.319121952
F		1.262423633		0.048715972		-1.616524829
F		0.447089901		1.536824589		1.603109956
F		2.543791074		0.595208497		3.624404017
F		0.020594989		-1.200719969		2.813537248
