12
-187.38518821
Al		1.282612378		0.0488492		2.444011937
Al		1.273652368		1.186300984		-0.082516252
Al		-0.319225929		0.83574364		-2.322397893
F		-1.670675644		-0.369895848		-2.218974205
F		2.057843272		-0.341453946		0.751100953
F		0.049433016		1.820533198		-3.797748578
F		-0.347913386		1.927385625		-0.764591179
F		2.580536409		2.414050809		-0.319027068
F		1.262395803		0.04930416		-1.615819633
F		0.447532411		1.536625971		1.602329714
F		2.543781562		0.595198703		3.624407633
F		0.020597899		-1.200725439		2.813554822
