12
-187.38518821
Al		1.282611675		0.048845753		2.444018212
Al		1.273540524		1.186195912		-0.082496011
Al		-0.319230527		0.835742107		-2.322403208
F		-1.670679924		-0.369895766		-2.218982481
F		2.057652882		-0.34107316		0.750928433
F		0.04942766		1.820528596		-3.797748556
F		-0.347515656		1.927199623		-0.764456182
F		2.580274261		2.413804534		-0.318979626
F		1.262381888		0.049598254		-1.615467035
F		0.447753666		1.536526662		1.601939593
F		2.543776806		0.595193806		3.624409441
F		0.020599354		-1.200728174		2.813563609
