12
-187.38518821
Al		1.282605348		0.04881473		2.444074687
Al		1.272533928		1.185250264		-0.082313842
Al		-0.319271909		0.83572831		-2.322451043
F		-1.670718444		-0.369895028		-2.219056965
F		2.055939372		-0.337646086		0.749375753
F		0.049379456		1.820487178		-3.797748358
F		-0.343936086		1.925525605		-0.763241209
F		2.577914929		2.411588059		-0.318552648
F		1.262256653		0.0522451		-1.612293653
F		0.449744961		1.535632881		1.598428504
F		2.543734002		0.595149733		3.624425713
F		0.020612449		-1.200752789		2.813642692
