12
-187.38518821
Al		1.282603239		0.048804389		2.444093512
Al		1.272198396		1.184935048		-0.082253119
Al		-0.319285703		0.835723711		-2.322466988
F		-1.670731284		-0.369894782		-2.219081793
F		2.055368202		-0.336503728		0.748858193
F		0.049363388		1.820473372		-3.797748292
F		-0.342742896		1.924967599		-0.762836218
F		2.577128485		2.410849234		-0.318410322
F		1.262214908		0.053127382		-1.611235859
F		0.450408726		1.535334954		1.597258141
F		2.543719734		0.595135042		3.624431137
F		0.020616814		-1.200760994		2.813669053
