12
-187.38518821
Al		1.28260113		0.048794048		2.444112337
Al		1.271862864		1.184619832		-0.082192396
Al		-0.319299497		0.835719112		-2.322482933
F		-1.670744124		-0.369894536		-2.219106621
F		2.054797032		-0.33536137		0.748340633
F		0.04934732		1.820459566		-3.797748226
F		-0.341549706		1.924409593		-0.762431227
F		2.576342041		2.410110409		-0.318267996
F		1.262173163		0.054009664		-1.610178065
F		0.451072491		1.535037027		1.596087778
F		2.543705466		0.595120351		3.624436561
F		0.020621179		-1.200769199		2.813695414
