12
-187.38518821
Al		1.282599724		0.048787154		2.444124887
Al		1.271639176		1.184409688		-0.082151914
Al		-0.319308693		0.835716046		-2.322493563
F		-1.670752684		-0.369894372		-2.219123173
F		2.054416252		-0.334599798		0.747995593
F		0.049336608		1.820450362		-3.797748182
F		-0.340754246		1.924037589		-0.762161233
F		2.575817745		2.409617859		-0.318173112
F		1.262145333		0.054597852		-1.609472869
F		0.451515001		1.534838409		1.595307536
F		2.543695954		0.595110557		3.624440177
F		0.020624089		-1.200774669		2.813712988
