12
-187.38518821
Al		1.282628547		0.048928481		2.443867612
Al		1.27622478		1.18871764		-0.082981795
Al		-0.319120175		0.835778899		-2.322275648
F		-1.670577204		-0.369897734		-2.218783857
F		2.062222242		-0.350212024		0.755068913
F		0.049556204		1.820639044		-3.797749084
F		-0.357061176		1.931663671		-0.76769611
F		2.586565813		2.419715134		-0.320118234
F		1.262715848		0.042539998		-1.623929387
F		0.442443546		1.538910078		1.611302497
F		2.54389095		0.595311334		3.624366049
F		0.020564434		-1.200662534		2.813352721
