12
-187.38518821
Al		1.282591991		0.048749237		2.444193912
Al		1.270408892		1.183253896		-0.081929263
Al		-0.319359271		0.835699183		-2.322552028
F		-1.670799764		-0.36989347		-2.219214209
F		2.052321962		-0.330411152		0.746097873
F		0.049277692		1.82039974		-3.79774794
F		-0.336379216		1.921991567		-0.760676266
F		2.572934117		2.406908834		-0.31765125
F		1.261992268		0.057832886		-1.605594291
F		0.453948806		1.53374601		1.591016205
F		2.543643638		0.59505669		3.624460065
F		0.020640094		-1.200804754		2.813809645
