12
-187.38518821
Al		1.282627844		0.048925034		2.443873887
Al		1.276112936		1.188612568		-0.082961554
Al		-0.319124773		0.835777366		-2.322280963
F		-1.670581484		-0.369897652		-2.218792133
F		2.062031852		-0.349831238		0.754896393
F		0.049550848		1.820634442		-3.797749062
F		-0.356663446		1.931477669		-0.767561113
F		2.586303665		2.419468859		-0.320070792
F		1.262701933		0.042834092		-1.623576789
F		0.442664801		1.538810769		1.610912376
F		2.543886194		0.595306437		3.624367857
F		0.020565889		-1.200665269		2.813361508
