12
-187.38518821
Al		1.282584258		0.04871132		2.444262937
Al		1.269178608		1.182098104		-0.081706612
Al		-0.319409849		0.83568232		-2.322610493
F		-1.670846844		-0.369892568		-2.219305245
F		2.050227672		-0.326222506		0.744200153
F		0.049218776		1.820349118		-3.797747698
F		-0.332004186		1.919945545		-0.759191299
F		2.570050489		2.404199809		-0.317129388
F		1.261839203		0.06106792		-1.601715713
F		0.456382611		1.532653611		1.586724874
F		2.543591322		0.595002823		3.624479953
F		0.020656099		-1.200834839		2.813906302
