12
-187.38518821
Al		1.282582149		0.048700979		2.444281762
Al		1.268843076		1.181782888		-0.081645889
Al		-0.319423643		0.835677721		-2.322626438
F		-1.670859684		-0.369892322		-2.219330073
F		2.049656502		-0.325080148		0.743682593
F		0.049202708		1.820335312		-3.797747632
F		-0.330810996		1.919387539		-0.758786308
F		2.569264045		2.403460984		-0.316987062
F		1.261797458		0.061950202		-1.600657919
F		0.457046376		1.532355684		1.585554511
F		2.543577054		0.594988132		3.624485377
F		0.020660464		-1.200843044		2.813932663
