12
-187.38518821
Al		1.282579337		0.048687191		2.444306862
Al		1.2683957		1.1813626		-0.081564925
Al		-0.319442035		0.835671589		-2.322647698
F		-1.670876804		-0.369891994		-2.219363177
F		2.048894942		-0.323557004		0.742992513
F		0.049181284		1.820316904		-3.797747544
F		-0.329220076		1.918643531		-0.75824632
F		2.568215453		2.402475884		-0.316797294
F		1.261741798		0.063126578		-1.599247527
F		0.457931396		1.531958448		1.583994027
F		2.54355803		0.594968544		3.624492609
F		0.020666284		-1.200853984		2.813967811
