12
-187.38518821
Al		1.282577228		0.04867685		2.444325687
Al		1.268060168		1.181047384		-0.081504202
Al		-0.319455829		0.83566699		-2.322663643
F		-1.670889644		-0.369891748		-2.219388005
F		2.048323772		-0.322414646		0.742474953
F		0.049165216		1.820303098		-3.797747478
F		-0.328026886		1.918085525		-0.757841329
F		2.567429009		2.401737059		-0.316654968
F		1.261700053		0.06400886		-1.598189733
F		0.458595161		1.531660521		1.582823664
F		2.543543762		0.594953853		3.624498033
F		0.020670649		-1.200862189		2.813994172
