12
-187.38518821
Al		1.282576525		0.048673403		2.444331962
Al		1.267948324		1.180942312		-0.081483961
Al		-0.319460427		0.835665457		-2.322668958
F		-1.670893924		-0.369891666		-2.219396281
F		2.048133382		-0.32203386		0.742302433
F		0.04915986		1.820298496		-3.797747456
F		-0.327629156		1.917899523		-0.757706332
F		2.567166861		2.401490784		-0.316607526
F		1.261686138		0.064302954		-1.597837135
F		0.458816416		1.531561212		1.582433543
F		2.543539006		0.594948956		3.624499841
F		0.020672104		-1.200864924		2.814002959
