12
-187.38518821
Al		1.28257301		0.048656168		2.444363337
Al		1.267389104		1.180416952		-0.081382756
Al		-0.319483417		0.835657792		-2.322695533
F		-1.670915324		-0.369891256		-2.219437661
F		2.047181432		-0.32012993		0.741439833
F		0.04913308		1.820275486		-3.797747346
F		-0.325640506		1.916969513		-0.757031347
F		2.565856121		2.400259409		-0.316370316
F		1.261616563		0.065773424		-1.596074145
F		0.459922691		1.531064667		1.580482938
F		2.543515226		0.594924471		3.624508881
F		0.020679379		-1.200878599		2.814046894
