12
-187.38518821
Al		1.282571604		0.048649274		2.444375887
Al		1.267165416		1.180206808		-0.081342274
Al		-0.319492613		0.835654726		-2.322706163
F		-1.670923884		-0.369891092		-2.219454213
F		2.046800652		-0.319368358		0.741094793
F		0.049122368		1.820266282		-3.797747302
F		-0.324845046		1.916597509		-0.756761353
F		2.565331825		2.399766859		-0.316275432
F		1.261588733		0.066361612		-1.595368949
F		0.460365201		1.530866049		1.579702696
F		2.543505714		0.594914677		3.624512497
F		0.020682289		-1.200884069		2.814064468
