12
-187.38518821
Al		1.282570901		0.048645827		2.444382162
Al		1.267053572		1.180101736		-0.081322033
Al		-0.319497211		0.835653193		-2.322711478
F		-1.670928164		-0.36989101		-2.219462489
F		2.046610262		-0.318987572		0.740922273
F		0.049117012		1.82026168		-3.79774728
F		-0.324447316		1.916411507		-0.756626356
F		2.565069677		2.399520584		-0.31622799
F		1.261574818		0.066655706		-1.595016351
F		0.460586456		1.53076674		1.579312575
F		2.543500958		0.59490978		3.624514305
F		0.020683744		-1.200886804		2.814073255
