12
-187.38518821
Al		1.282570198		0.04864238		2.444388437
Al		1.266941728		1.179996664		-0.081301792
Al		-0.319501809		0.83565166		-2.322716793
F		-1.670932444		-0.369890928		-2.219470765
F		2.046419872		-0.318606786		0.740749753
F		0.049111656		1.820257078		-3.797747258
F		-0.324049586		1.916225505		-0.756491359
F		2.564807529		2.399274309		-0.316180548
F		1.261560903		0.0669498		-1.594663753
F		0.460807711		1.530667431		1.578922454
F		2.543496202		0.594904883		3.624516113
F		0.020685199		-1.200889539		2.814082042
