12
-187.38518821
Al		1.282569495		0.048638933		2.444394712
Al		1.266829884		1.179891592		-0.081281551
Al		-0.319506407		0.835650127		-2.322722108
F		-1.670936724		-0.369890846		-2.219479041
F		2.046229482		-0.318226		0.740577233
F		0.0491063		1.820252476		-3.797747236
F		-0.323651856		1.916039503		-0.756356362
F		2.564545381		2.399028034		-0.316133106
F		1.261546988		0.067243894		-1.594311155
F		0.461028966		1.530568122		1.578532333
F		2.543491446		0.594899986		3.624517921
F		0.020686654		-1.200892274		2.814090829
