12
-187.38518821
Al		1.282564574		0.048614804		2.444438637
Al		1.266046976		1.179156088		-0.081139864
Al		-0.319538593		0.835639396		-2.322759313
F		-1.670966684		-0.369890272		-2.219536973
F		2.044896752		-0.315560498		0.739369593
F		0.049068808		1.820220262		-3.797747082
F		-0.320867746		1.914737489		-0.755411383
F		2.562710345		2.397304109		-0.315801012
F		1.261449583		0.069302552		-1.591842969
F		0.462577751		1.529872959		1.575801486
F		2.543458154		0.594865707		3.624530577
F		0.020696839		-1.200911419		2.814152338
