12
-187.38518821
Al		1.282562465		0.048604463		2.444457462
Al		1.265711444		1.178840872		-0.081079141
Al		-0.319552387		0.835634797		-2.322775258
F		-1.670979524		-0.369890026		-2.219561801
F		2.044325582		-0.31441814		0.738852033
F		0.04905274		1.820206456		-3.797747016
F		-0.319674556		1.914179483		-0.755006392
F		2.561923901		2.396565284		-0.315658686
F		1.261407838		0.070184834		-1.590785175
F		0.463241516		1.529575032		1.574631123
F		2.543443886		0.594851016		3.624536001
F		0.020701204		-1.200919624		2.814178699
