12
-187.38518821
Al		1.282632765		0.048949163		2.443829962
Al		1.276895844		1.189348072		-0.083103241
Al		-0.319092587		0.835788097		-2.322243758
F		-1.670551524		-0.369898226		-2.218734201
F		2.063364582		-0.35249674		0.756104033
F		0.04958834		1.820666656		-3.797749216
F		-0.359447556		1.932779683		-0.768506092
F		2.588138701		2.421192784		-0.320402886
F		1.262799338		0.040775434		-1.626044975
F		0.441116016		1.539505932		1.613643223
F		2.543919486		0.595340716		3.624355201
F		0.020555704		-1.200646124		2.813299999
