12
-187.38518821
Al		1.282639092		0.048980186		2.443773487
Al		1.27790244		1.19029372		-0.08328541
Al		-0.319051205		0.835801894		-2.322195923
F		-1.670513004		-0.369898964		-2.218659717
F		2.065078092		-0.355923814		0.757656713
F		0.049636544		1.820708074		-3.797749414
F		-0.363027126		1.934453701		-0.769721065
F		2.590498033		2.423409259		-0.320829864
F		1.262924573		0.038128588		-1.629218357
F		0.439124721		1.540399713		1.617154312
F		2.54396229		0.595384789		3.624338929
F		0.020542609		-1.200621509		2.813220916
