12
-187.38518821
Al		1.282639795		0.048983633		2.443767212
Al		1.278014284		1.190398792		-0.083305651
Al		-0.319046607		0.835803427		-2.322190608
F		-1.670508724		-0.369899046		-2.218651441
F		2.065268482		-0.3563046		0.757829233
F		0.0496419		1.820712676		-3.797749436
F		-0.363424856		1.934639703		-0.769856062
F		2.590760181		2.423655534		-0.320877306
F		1.262938488		0.037834494		-1.629570955
F		0.438903466		1.540499022		1.617544433
F		2.543967046		0.595389686		3.624337121
F		0.020541154		-1.200618774		2.813212129
