12
-187.38518821
Al		1.28264331		0.049000868		2.443735837
Al		1.278573504		1.190924152		-0.083406856
Al		-0.319023617		0.835811092		-2.322164033
F		-1.670487324		-0.369899456		-2.218610061
F		2.066220432		-0.35820853		0.758691833
F		0.04966868		1.820735686		-3.797749546
F		-0.365413506		1.935569713		-0.770531047
F		2.592070921		2.424886909		-0.321114516
F		1.263008063		0.036364024		-1.631333945
F		0.437797191		1.540995567		1.619495038
F		2.543990826		0.595414171		3.624328081
F		0.020533879		-1.200605099		2.813168194
