12
-187.38518821
Al		1.282644013		0.049004315		2.443729562
Al		1.278685348		1.191029224		-0.083427097
Al		-0.319019019		0.835812625		-2.322158718
F		-1.670483044		-0.369899538		-2.218601785
F		2.066410822		-0.358589316		0.758864353
F		0.049674036		1.820740288		-3.797749568
F		-0.365811236		1.935755715		-0.770666044
F		2.592333069		2.425133184		-0.321161958
F		1.263021978		0.03606993		-1.631686543
F		0.437575936		1.541094876		1.619885159
F		2.543995582		0.595419068		3.624326273
F		0.020532424		-1.200602364		2.813159407
