12
-187.38518821
Al		1.282644716		0.049007762		2.443723287
Al		1.278797192		1.191134296		-0.083447338
Al		-0.319014421		0.835814158		-2.322153403
F		-1.670478764		-0.36989962		-2.218593509
F		2.066601212		-0.358970102		0.759036873
F		0.049679392		1.82074489		-3.79774959
F		-0.366208966		1.935941717		-0.770801041
F		2.592595217		2.425379459		-0.3212094
F		1.263035893		0.035775836		-1.632039141
F		0.437354681		1.541194185		1.62027528
F		2.544000338		0.595423965		3.624324465
F		0.020530969		-1.200599629		2.81315062
