12
-187.38518821
Al		1.282633468		0.04895261		2.443823687
Al		1.277007688		1.189453144		-0.083123482
Al		-0.319087989		0.83578963		-2.322238443
F		-1.670547244		-0.369898308		-2.218725925
F		2.063554972		-0.352877526		0.756276553
F		0.049593696		1.820671258		-3.797749238
F		-0.359845286		1.932965685		-0.768641089
F		2.588400849		2.421439059		-0.320450328
F		1.262813253		0.04048134		-1.626397573
F		0.440894761		1.539605241		1.614033344
F		2.543924242		0.595345613		3.624353393
F		0.020554249		-1.200643389		2.813291212
