12
-187.38518821
Al		1.282647528		0.04902155		2.443698187
Al		1.279244568		1.191554584		-0.083528302
Al		-0.318996029		0.83582029		-2.322132143
F		-1.670461644		-0.369899948		-2.218560405
F		2.067362772		-0.360493246		0.759726953
F		0.049700816		1.820763298		-3.797749678
F		-0.367799886		1.936685725		-0.771341029
F		2.593643809		2.426364559		-0.321399168
F		1.263091553		0.03459946		-1.633449533
F		0.436469661		1.541591421		1.621835764
F		2.544019362		0.595443553		3.624317233
F		0.020525149		-1.200588689		2.813115472
