12
-187.38518821
Al		1.282651746		0.049042232		2.443660537
Al		1.279915632		1.192185016		-0.083649748
Al		-0.318968441		0.835829488		-2.322100253
F		-1.670435964		-0.36990044		-2.218510749
F		2.068505112		-0.362777962		0.760762073
F		0.049732952		1.82079091		-3.79774981
F		-0.370186266		1.937801737		-0.772151011
F		2.595216697		2.427842209		-0.32168382
F		1.263175043		0.032834896		-1.635565121
F		0.435142131		1.542187275		1.62417649
F		2.544047898		0.595472935		3.624306385
F		0.020516419		-1.200572279		2.81306275
