12
-187.38518821
Al		1.282655261		0.049059467		2.443629162
Al		1.280474852		1.192710376		-0.083750953
Al		-0.318945451		0.835837153		-2.322073678
F		-1.670414564		-0.36990085		-2.218469369
F		2.069457062		-0.364681892		0.761624673
F		0.049759732		1.82081392		-3.79774992
F		-0.372174916		1.938731747		-0.772825996
F		2.596527437		2.429073584		-0.32192103
F		1.263244618		0.031364426		-1.637328111
F		0.434035856		1.54268382		1.626127095
F		2.544071678		0.59549742		3.624297345
F		0.020509144		-1.200558604		2.813018815
