12
-187.38518821
Al		1.28265737		0.049069808		2.443610337
Al		1.280810384		1.193025592		-0.083811676
Al		-0.318931657		0.835841752		-2.322057733
F		-1.670401724		-0.369901096		-2.218444541
F		2.070028232		-0.36582425		0.762142233
F		0.0497758		1.820827726		-3.797749986
F		-0.373368106		1.939289753		-0.773230987
F		2.597313881		2.429812409		-0.322063356
F		1.263286363		0.030482144		-1.638385905
F		0.433372091		1.542981747		1.627297458
F		2.544085946		0.595512111		3.624291921
F		0.020504779		-1.200550399		2.812992454
