12
-187.38518821
Al		1.282658776		0.049076702		2.443597787
Al		1.281034072		1.193235736		-0.083852158
Al		-0.318922461		0.835844818		-2.322047103
F		-1.670393164		-0.36990126		-2.218427989
F		2.070409012		-0.366585822		0.762487273
F		0.049786512		1.82083693		-3.79775003
F		-0.374163566		1.939661757		-0.773500981
F		2.597838177		2.430304959		-0.32215824
F		1.263314193		0.029893956		-1.639091101
F		0.432929581		1.543180365		1.6280777
F		2.544095458		0.595521905		3.624288305
F		0.020501869		-1.200544929		2.81297488
