12
-187.38518821
Al		1.282661588		0.04909049		2.443572687
Al		1.281481448		1.193656024		-0.083933122
Al		-0.318904069		0.83585095		-2.322025843
F		-1.670376044		-0.369901588		-2.218394885
F		2.071170572		-0.368108966		0.763177353
F		0.049807936		1.820855338		-3.797750118
F		-0.375754486		1.940405765		-0.774040969
F		2.598886769		2.431290059		-0.322348008
F		1.263369853		0.02871758		-1.640501493
F		0.432044561		1.543577601		1.629638184
F		2.544114482		0.595541493		3.624281073
F		0.020496049		-1.200533989		2.812939732
