12
-187.38518821
Al		1.282663697		0.049100831		2.443553862
Al		1.28181698		1.19397124		-0.083993845
Al		-0.318890275		0.835855549		-2.322009898
F		-1.670363204		-0.369901834		-2.218370057
F		2.071741742		-0.369251324		0.763694913
F		0.049824004		1.820869144		-3.797750184
F		-0.376947676		1.940963771		-0.77444596
F		2.599673213		2.432028884		-0.322490334
F		1.263411598		0.027835298		-1.641559287
F		0.431380796		1.543875528		1.630808547
F		2.54412875		0.595556184		3.624275649
F		0.020491684		-1.200525784		2.812913371
