12
-187.38518821
Al		1.2826644		0.049104278		2.443547587
Al		1.281928824		1.194076312		-0.084014086
Al		-0.318885677		0.835857082		-2.322004583
F		-1.670358924		-0.369901916		-2.218361781
F		2.071932132		-0.36963211		0.763867433
F		0.04982936		1.820873746		-3.797750206
F		-0.377345406		1.941149773		-0.774580957
F		2.599935361		2.432275159		-0.322537776
F		1.263425513		0.027541204		-1.641911885
F		0.431159541		1.543974837		1.631198668
F		2.544133506		0.595561081		3.624273841
F		0.020490229		-1.200523049		2.812904584
