12
-187.38518821
Al		1.282667212		0.049118066		2.443522487
Al		1.2823762		1.1944966		-0.08409505
Al		-0.318867285		0.835863214		-2.321983323
F		-1.670341804		-0.369902244		-2.218328677
F		2.072693692		-0.371155254		0.764557513
F		0.049850784		1.820892154		-3.797750294
F		-0.378936326		1.941893781		-0.775120945
F		2.600983953		2.433260259		-0.322727544
F		1.263481173		0.026364828		-1.643322277
F		0.430274521		1.544372073		1.632759152
F		2.54415253		0.595580669		3.624266609
F		0.020484409		-1.200512109		2.812869436
