12
-187.38518821
Al		1.282667915		0.049121513		2.443516212
Al		1.282488044		1.194601672		-0.084115291
Al		-0.318862687		0.835864747		-2.321978008
F		-1.670337524		-0.369902326		-2.218320401
F		2.072884082		-0.37153604		0.764730033
F		0.04985614		1.820896756		-3.797750316
F		-0.379334056		1.942079783		-0.775255942
F		2.601246101		2.433506534		-0.322774986
F		1.263495088		0.026070734		-1.643674875
F		0.430053266		1.544471382		1.633149273
F		2.544157286		0.595585566		3.624264801
F		0.020482954		-1.200509374		2.812860649
