12
-187.38518821
Al		1.282668618		0.04912496		2.443509937
Al		1.282599888		1.194706744		-0.084135532
Al		-0.318858089		0.83586628		-2.321972693
F		-1.670333244		-0.369902408		-2.218312125
F		2.073074472		-0.371916826		0.764902553
F		0.049861496		1.820901358		-3.797750338
F		-0.379731786		1.942265785		-0.775390939
F		2.601508249		2.433752809		-0.322822428
F		1.263509003		0.02577664		-1.644027473
F		0.429832011		1.544570691		1.633539394
F		2.544162042		0.595590463		3.624262993
F		0.020481499		-1.200506639		2.812851862
