12
-187.38518821
Al		1.28267143		0.049138748		2.443484837
Al		1.283047264		1.195127032		-0.084216496
Al		-0.318839697		0.835872412		-2.321951433
F		-1.670316124		-0.369902736		-2.218279021
F		2.073836032		-0.37343997		0.765592633
F		0.04988292		1.820919766		-3.797750426
F		-0.381322706		1.943009793		-0.775930927
F		2.602556841		2.434737909		-0.323012196
F		1.263564663		0.024600264		-1.645437865
F		0.428946991		1.544967927		1.635099878
F		2.544181066		0.595610051		3.624255761
F		0.020475679		-1.200495699		2.812816714
