12
-187.38518821
Al		1.282673539		0.049149089		2.443466012
Al		1.283382796		1.195442248		-0.084277219
Al		-0.318825903		0.835877011		-2.321935488
F		-1.670303284		-0.369902982		-2.218254193
F		2.074407202		-0.374582328		0.766110193
F		0.049898988		1.820933572		-3.797750492
F		-0.382515896		1.943567799		-0.776335918
F		2.603343285		2.435476734		-0.323154522
F		1.263606408		0.023717982		-1.646495659
F		0.428283226		1.545265854		1.636270241
F		2.544195334		0.595624742		3.624250337
F		0.020471314		-1.200487494		2.812790353
