12
-187.38518821
Al		1.282675648		0.04915943		2.443447187
Al		1.283718328		1.195757464		-0.084337942
Al		-0.318812109		0.83588161		-2.321919543
F		-1.670290444		-0.369903228		-2.218229365
F		2.074978372		-0.375724686		0.766627753
F		0.049915056		1.820947378		-3.797750558
F		-0.383709086		1.944125805		-0.776740909
F		2.604129729		2.436215559		-0.323296848
F		1.263648153		0.0228357		-1.647553453
F		0.427619461		1.545563781		1.637440604
F		2.544209602		0.595639433		3.624244913
F		0.020466949		-1.200479289		2.812763992
