12
-187.38518821
Al		1.282677054		0.049166324		2.443434637
Al		1.283942016		1.195967608		-0.084378424
Al		-0.318802913		0.835884676		-2.321908913
F		-1.670281884		-0.369903392		-2.218212813
F		2.075359152		-0.376486258		0.766972793
F		0.049925768		1.820956582		-3.797750602
F		-0.384504546		1.944497809		-0.777010903
F		2.604654025		2.436708109		-0.323391732
F		1.263675983		0.022247512		-1.648258649
F		0.427176951		1.545762399		1.638220846
F		2.544219114		0.595649227		3.624241297
F		0.020464039		-1.200473819		2.812746418
