12
-187.38518821
Al		1.28267846		0.049173218		2.443422087
Al		1.284165704		1.196177752		-0.084418906
Al		-0.318793717		0.835887742		-2.321898283
F		-1.670273324		-0.369903556		-2.218196261
F		2.075739932		-0.37724783		0.767317833
F		0.04993648		1.820965786		-3.797750646
F		-0.385300006		1.944869813		-0.777280897
F		2.605178321		2.437200659		-0.323486616
F		1.263703813		0.021659324		-1.648963845
F		0.426734441		1.545961017		1.639001088
F		2.544228626		0.595659021		3.624237681
F		0.020461129		-1.200468349		2.812728844
