12
-187.38518821
Al		1.282680569		0.049183559		2.443403262
Al		1.284501236		1.196492968		-0.084479629
Al		-0.318779923		0.835892341		-2.321882338
F		-1.670260484		-0.369903802		-2.218171433
F		2.076311102		-0.378390188		0.767835393
F		0.049952548		1.820979592		-3.797750712
F		-0.386493196		1.945427819		-0.777685888
F		2.605964765		2.437939484		-0.323628942
F		1.263745558		0.020777042		-1.650021639
F		0.426070676		1.546258944		1.640171451
F		2.544242894		0.595673712		3.624232257
F		0.020456764		-1.200460144		2.812702483
