12
-187.38518821
Al		1.282683381		0.049197347		2.443378162
Al		1.284948612		1.196913256		-0.084560593
Al		-0.318761531		0.835898473		-2.321861078
F		-1.670243364		-0.36990413		-2.218138329
F		2.077072662		-0.379913332		0.768525473
F		0.049973972		1.820998		-3.7977508
F		-0.388084116		1.946171827		-0.778225876
F		2.607013357		2.438924584		-0.32381871
F		1.263801218		0.019600666		-1.651432031
F		0.425185656		1.54665618		1.641731935
F		2.544261918		0.5956933		3.624225025
F		0.020450944		-1.200449204		2.812667335
