12
-187.38518821
Al		1.282684787		0.049204241		2.443365612
Al		1.2851723		1.1971234		-0.084601075
Al		-0.318752335		0.835901539		-2.321850448
F		-1.670234804		-0.369904294		-2.218121777
F		2.077453442		-0.380674904		0.768870513
F		0.049984684		1.821007204		-3.797750844
F		-0.388879576		1.946543831		-0.77849587
F		2.607537653		2.439417134		-0.323913594
F		1.263829048		0.019012478		-1.652137227
F		0.424743146		1.546854798		1.642512177
F		2.54427143		0.595703094		3.624221409
F		0.020448034		-1.200443734		2.812649761
