12
-187.38518821
Al		1.282686193		0.049211135		2.443353062
Al		1.285395988		1.197333544		-0.084641557
Al		-0.318743139		0.835904605		-2.321839818
F		-1.670226244		-0.369904458		-2.218105225
F		2.077834222		-0.381436476		0.769215553
F		0.049995396		1.821016408		-3.797750888
F		-0.389675036		1.946915835		-0.778765864
F		2.608061949		2.439909684		-0.324008478
F		1.263856878		0.01842429		-1.652842423
F		0.424300636		1.547053416		1.643292419
F		2.544280942		0.595712888		3.624217793
F		0.020445124		-1.200438264		2.812632187
