12
-187.38518821
Al		1.282687599		0.049218029		2.443340512
Al		1.285619676		1.197543688		-0.084682039
Al		-0.318733943		0.835907671		-2.321829188
F		-1.670217684		-0.369904622		-2.218088673
F		2.078215002		-0.382198048		0.769560593
F		0.050006108		1.821025612		-3.797750932
F		-0.390470496		1.947287839		-0.779035858
F		2.608586245		2.440402234		-0.324103362
F		1.263884708		0.017836102		-1.653547619
F		0.423858126		1.547252034		1.644072661
F		2.544290454		0.595722682		3.624214177
F		0.020442214		-1.200432794		2.812614613
