12
-187.38518821
Al		1.282637686		0.048973292		2.443786037
Al		1.277678752		1.190083576		-0.083244928
Al		-0.319060401		0.835798828		-2.322206553
F		-1.670521564		-0.3698988		-2.218676269
F		2.064697312		-0.355162242		0.757311673
F		0.049625832		1.82069887		-3.79774937
F		-0.362231666		1.934081697		-0.769451071
F		2.589973737		2.422916709		-0.32073498
F		1.262896743		0.038716776		-1.628513161
F		0.439567231		1.540201095		1.61637407
F		2.543952778		0.595374995		3.624342545
F		0.020545519		-1.200626979		2.81323849
