12
-187.38518821
Al		1.282690411		0.049231817		2.443315412
Al		1.286067052		1.197963976		-0.084763003
Al		-0.318715551		0.835913803		-2.321807928
F		-1.670200564		-0.36990495		-2.218055569
F		2.078976562		-0.383721192		0.770250673
F		0.050027532		1.82104402		-3.79775102
F		-0.392061416		1.948031847		-0.779575846
F		2.609634837		2.441387334		-0.32429313
F		1.263940368		0.016659726		-1.654958011
F		0.422973106		1.54764927		1.645633145
F		2.544309478		0.59574227		3.624206945
F		0.020436394		-1.200421854		2.812579465
