12
-187.38518821
Al		1.282691114		0.049235264		2.443309137
Al		1.286178896		1.198069048		-0.084783244
Al		-0.318710953		0.835915336		-2.321802613
F		-1.670196284		-0.369905032		-2.218047293
F		2.079166952		-0.384101978		0.770423193
F		0.050032888		1.821048622		-3.797751042
F		-0.392459146		1.948217849		-0.779710843
F		2.609896985		2.441633609		-0.324340572
F		1.263954283		0.016365632		-1.655310609
F		0.422751851		1.547748579		1.646023266
F		2.544314234		0.595747167		3.624205137
F		0.020434939		-1.200419119		2.812570678
