12
-187.38518821
Al		1.282693223		0.049245605		2.443290312
Al		1.286514428		1.198384264		-0.084843967
Al		-0.318697159		0.835919935		-2.321786668
F		-1.670183444		-0.369905278		-2.218022465
F		2.079738122		-0.385244336		0.770940753
F		0.050048956		1.821062428		-3.797751108
F		-0.393652336		1.948775855		-0.780115834
F		2.610683429		2.442372434		-0.324482898
F		1.263996028		0.01548335		-1.656368403
F		0.422088086		1.548046506		1.647193629
F		2.544328502		0.595761858		3.624199713
F		0.020430574		-1.200410914		2.812544317
