12
-187.38518821
Al		1.282638389		0.048976739		2.443779762
Al		1.277790596		1.190188648		-0.083265169
Al		-0.319055803		0.835800361		-2.322201238
F		-1.670517284		-0.369898882		-2.218667993
F		2.064887702		-0.355543028		0.757484193
F		0.049631188		1.820703472		-3.797749392
F		-0.362629396		1.934267699		-0.769586068
F		2.590235885		2.423162984		-0.320782422
F		1.262910658		0.038422682		-1.628865759
F		0.439345976		1.540300404		1.616764191
F		2.543957534		0.595379892		3.624340737
F		0.020544064		-1.200624244		2.813229703
