12
-187.38518821
Al		1.282696738		0.04926284		2.443258937
Al		1.287073648		1.198909624		-0.084945172
Al		-0.318674169		0.8359276		-2.321760093
F		-1.670162044		-0.369905688		-2.217981085
F		2.080690072		-0.387148266		0.771803353
F		0.050075736		1.821085438		-3.797751218
F		-0.395640986		1.949705865		-0.780790819
F		2.611994169		2.443603809		-0.324720108
F		1.264065603		0.01401288		-1.658131393
F		0.420981811		1.548543051		1.649144234
F		2.544352282		0.595786343		3.624190673
F		0.020423299		-1.200397239		2.812500382
