12
-187.38518821
Al		1.282698144		0.049269734		2.443246387
Al		1.287297336		1.199119768		-0.084985654
Al		-0.318664973		0.835930666		-2.321749463
F		-1.670153484		-0.369905852		-2.217964533
F		2.081070852		-0.387909838		0.772148393
F		0.050086448		1.821094642		-3.797751262
F		-0.396436446		1.950077869		-0.781060813
F		2.612518465		2.444096359		-0.324814992
F		1.264093433		0.013424692		-1.658836589
F		0.420539301		1.548741669		1.649924476
F		2.544361794		0.595796137		3.624187057
F		0.020420389		-1.200391769		2.812482808
