12
-187.38518821
Al		1.282698847		0.049273181		2.443240112
Al		1.28740918		1.19922484		-0.085005895
Al		-0.318660375		0.835932199		-2.321744148
F		-1.670149204		-0.369905934		-2.217956257
F		2.081261242		-0.388290624		0.772320913
F		0.050091804		1.821099244		-3.797751284
F		-0.396834176		1.950263871		-0.78119581
F		2.612780613		2.444342634		-0.324862434
F		1.264107348		0.013130598		-1.659189187
F		0.420318046		1.548840978		1.650314597
F		2.54436655		0.595801034		3.624185249
F		0.020418934		-1.200389034		2.812474021
