12
-187.38518821
Al		1.28269955		0.049276628		2.443233837
Al		1.287521024		1.199329912		-0.085026136
Al		-0.318655777		0.835933732		-2.321738833
F		-1.670144924		-0.369906016		-2.217947981
F		2.081451632		-0.38867141		0.772493433
F		0.05009716		1.821103846		-3.797751306
F		-0.397231906		1.950449873		-0.781330807
F		2.613042761		2.444588909		-0.324909876
F		1.264121263		0.012836504		-1.659541785
F		0.420096791		1.548940287		1.650704718
F		2.544371306		0.595805931		3.624183441
F		0.020417479		-1.200386299		2.812465234
