12
Properties=species:S:1:pos:R:3:forces:R:3 energy=-186.56215295 pbc="F F F"
Al    -0.38691623799999997    1.1392133599999998    -1.821493136    0.0    0.0    0.0
Al    -0.45441611400000004    1.104571653    1.2810876359999999    -0.0    0.0    0.0
Al    -3.000908119    0.370575289    -1.8571349419999998    -0.0    -0.0    -0.0
F    -3.447849061    -0.07327459199999997    -3.5923265079999998    -0.0    -0.0    0.0
F    -1.3015281570000001    -0.5382673010000001    -1.636294645    0.0    0.0    0.0
F    -2.022386087    2.049183403    -2.098532583    0.0    -0.0    0.0
F    -2.126196325    1.1411247389999999    0.447612424    -0.0    0.0    0.0
F    0.546406327    1.5013412430000002    -0.299184111    -0.0    0.0    0.0
F    -0.008480174999999979    2.584634597    2.3459977469999997    0.0    -0.0    0.0
F    0.16621411500000002    -0.629312258    1.702885845    0.0    -0.0    -0.0
F    -4.293120892    0.28708267    -0.582246565    0.0    0.0    0.0
F    0.742632627    1.266698737    -3.234293029    0.0    -0.0    0.0
