12
-186.56215295
Al		-0.364552068		1.03608859		-1.819456886
Al		-0.447807131		1.073280781		1.281747671
Al		-3.019496493		0.456956038		-1.858911249
F		-3.531461535		0.314423736		-3.599861541
F		-1.375407988		-0.561189454		-1.843681198
F		-1.947137503		2.066402359		-1.891082811
F		-2.033845137		0.713448635		0.455722439
F		0.595916776		1.272112487		-0.294694075
F		-0.303966411		2.737753724		1.992553981
F		0.369012998		-0.355176001		2.048347538
F		-4.275809637		0.206925576		-0.580904673
F		0.746016839		1.251749753		-3.233879534
