12
-186.56215295
Al		-0.369293538		1.06125466		-1.819310636
Al		-0.447178481		1.063966591		1.282495301
Al		-3.015666003		0.442580878		-1.859793609
F		-3.529251855		0.311547336		-3.601065561
F		-1.359278458		-0.552658804		-1.856258338
F		-1.964277193		2.068211089		-1.879113261
F		-2.030127777		0.693025655		0.455696609
F		0.591420016		1.291653197		-0.294000175
F		-0.323311281		2.725406804		2.007909871
F		0.388829108		-0.359610571		2.034809558
F		-4.267402467		0.167504226		-0.581831313
F		0.737054819		1.299612203		-3.233640944
