12
-186.56215295
Al		-0.364657434		1.036647836		-1.819453636
Al		-0.447793161		1.073073799		1.281764285
Al		-3.019411371		0.45663659		-1.858930857
F		-3.531412431		0.314359816		-3.599888297
F		-1.375049554		-0.560999884		-1.84396069
F		-1.947518385		2.066442553		-1.890816821
F		-2.033762529		0.712994791		0.455721865
F		0.595816848		1.272546725		-0.294678655
F		-0.304396297		2.737479348		1.992895223
F		0.369453356		-0.355274547		2.048046694
F		-4.275622811		0.206049546		-0.580925265
F		0.745817683		1.252813363		-3.233874232
