12
-186.56215295
Al		-0.364815483		1.037486705		-1.819448761
Al		-0.447772206		1.072763326		1.281789206
Al		-3.019283688		0.456157418		-1.858960269
F		-3.531338775		0.314263936		-3.599928431
F		-1.374511903		-0.560715529		-1.844379928
F		-1.948089708		2.066502844		-1.890417836
F		-2.033638617		0.712314025		0.455721004
F		0.595666956		1.273198082		-0.294655525
F		-0.305041126		2.737067784		1.993407086
F		0.370113893		-0.355422366		2.047595428
F		-4.275342572		0.204735501		-0.580956153
F		0.745518949		1.254408778		-3.233866279
