12
-186.56215295
Al		-0.365026215		1.038605197		-1.819442261
Al		-0.447744266		1.072349362		1.281822434
Al		-3.019113444		0.455518522		-1.858999485
F		-3.531240567		0.314136096		-3.599981943
F		-1.373795035		-0.560336389		-1.844938912
F		-1.948851472		2.066583232		-1.889885856
F		-2.033473401		0.711406337		0.455719856
F		0.5954671		1.274066558		-0.294624685
F		-0.305900898		2.736519032		1.99408957
F		0.370994609		-0.355619458		2.04699374
F		-4.27496892		0.202983441		-0.580997337
F		0.745120637		1.256535998		-3.233855675
