12
-186.56215295
Al		-0.365078898		1.03888482		-1.819440636
Al		-0.447737281		1.072245871		1.281830741
Al		-3.019070883		0.455358798		-1.859009289
F		-3.531216015		0.314104136		-3.599995321
F		-1.373615818		-0.560241604		-1.845078658
F		-1.949041913		2.066603329		-1.889752861
F		-2.033432097		0.711179415		0.455719569
F		0.595417136		1.274283677		-0.294616975
F		-0.306115841		2.736381844		1.994260191
F		0.371214788		-0.355668731		2.046843318
F		-4.274875507		0.202545426		-0.581007633
F		0.745021059		1.257067803		-3.233853024
