12
-186.56215295
Al		-0.365236947		1.039723689		-1.819435761
Al		-0.447716326		1.071935398		1.281855662
Al		-3.0189432		0.454879626		-1.859038701
F		-3.531142359		0.314008256		-3.600035455
F		-1.373078167		-0.559957249		-1.845497896
F		-1.949613236		2.06666362		-1.889353876
F		-2.033308185		0.710498649		0.455718708
F		0.595267244		1.274935034		-0.294593845
F		-0.30676067		2.73597028		1.994772054
F		0.371875325		-0.35581655		2.046392052
F		-4.274595268		0.201231381		-0.581038521
F		0.744722325		1.258663218		-3.233845071
