12
-186.56215295
Al		-0.365394996		1.040562558		-1.819430886
Al		-0.447695371		1.071624925		1.281880583
Al		-3.018815517		0.454400454		-1.859068113
F		-3.531068703		0.313912376		-3.600075589
F		-1.372540516		-0.559672894		-1.845917134
F		-1.950184559		2.066723911		-1.888954891
F		-2.033184273		0.709817883		0.455717847
F		0.595117352		1.275586391		-0.294570715
F		-0.307405499		2.735558716		1.995283917
F		0.372535862		-0.355964369		2.045940786
F		-4.274315029		0.199917336		-0.581069409
F		0.744423591		1.260258633		-3.233837118
