12
-186.56215295
Al		-0.365921826		1.043358788		-1.819414636
Al		-0.447625521		1.070590015		1.281963653
Al		-3.018389907		0.452803214		-1.859166153
F		-3.530823183		0.313592776		-3.600209369
F		-1.370748346		-0.558725044		-1.847314594
F		-1.952088969		2.066924881		-1.887624941
F		-2.032771233		0.707548663		0.455714977
F		0.594617712		1.277757581		-0.294493615
F		-0.309554929		2.734186836		1.996990127
F		0.374737652		-0.356457099		2.044436566
F		-4.273380899		0.195537186		-0.581172369
F		0.743427811		1.265576683		-3.233810608
