12
-186.56215295
Al		-0.366027192		1.043918034		-1.819411386
Al		-0.447611551		1.070383033		1.281980267
Al		-3.018304785		0.452483766		-1.859185761
F		-3.530774079		0.313528856		-3.600236125
F		-1.370389912		-0.558535474		-1.847594086
F		-1.952469851		2.066965075		-1.887358951
F		-2.032688625		0.707094819		0.455714403
F		0.594517784		1.278191819		-0.294478195
F		-0.309984815		2.73391246		1.997331369
F		0.37517801		-0.356555645		2.044135722
F		-4.273194073		0.194661156		-0.581192961
F		0.743228655		1.266640293		-3.233805306
