12
-186.56215295
Al		-0.36423597		1.034410852		-1.819466636
Al		-0.447849041		1.073901727		1.281697829
Al		-3.019751859		0.457914382		-1.858852425
F		-3.531608847		0.314615496		-3.599781273
F		-1.37648329		-0.561758164		-1.842842722
F		-1.945994857		2.066281777		-1.891880781
F		-2.034092961		0.714810167		0.455724161
F		0.59621656		1.270809773		-0.294740335
F		-0.302676753		2.738576852		1.991530255
F		0.367691924		-0.354880363		2.04925007
F		-4.276370115		0.209553666		-0.580842897
F		0.746614307		1.248558923		-3.23389544
