12
-186.56215295
Al		-0.366290607		1.045316149		-1.819403261
Al		-0.447576626		1.069865578		1.282021802
Al		-3.01809198		0.451685146		-1.859234781
F		-3.530651319		0.313369056		-3.600303015
F		-1.369493827		-0.558061549		-1.848292816
F		-1.953422056		2.06706556		-1.886693976
F		-2.032482105		0.705960209		0.455712968
F		0.594267964		1.279277414		-0.294439645
F		-0.31105953		2.73322652		1.998184474
F		0.376278905		-0.35680201		2.043383612
F		-4.272727008		0.192471081		-0.581244441
F		0.742730765		1.269299318		-3.233792051
