12
-186.56215295
Al		-0.36634329		1.045595772		-1.819401636
Al		-0.447569641		1.069762087		1.282030109
Al		-3.018049419		0.451525422		-1.859244585
F		-3.530626767		0.313337096		-3.600316393
F		-1.36931461		-0.557966764		-1.848432562
F		-1.953612497		2.067085657		-1.886560981
F		-2.032440801		0.705733287		0.455712681
F		0.594218		1.279494533		-0.294431935
F		-0.311274473		2.733089332		1.998355095
F		0.376499084		-0.356851283		2.04323319
F		-4.272633595		0.192033066		-0.581254737
F		0.742631187		1.269831123		-3.2337894
