12
-186.56215295
Al		-0.366501339		1.046434641		-1.819396761
Al		-0.447548686		1.069451614		1.28205503
Al		-3.017921736		0.45104625		-1.859273997
F		-3.530553111		0.313241216		-3.600356527
F		-1.368776959		-0.557682409		-1.8488518
F		-1.95418382		2.067145948		-1.886161996
F		-2.032316889		0.705052521		0.45571182
F		0.594068108		1.28014589		-0.294408805
F		-0.311919302		2.732677768		1.998866958
F		0.377159621		-0.356999102		2.042781924
F		-4.272353356		0.190719021		-0.581285625
F		0.742332453		1.271426538		-3.233781447
