12
-186.56215295
Al		-0.364288653		1.034690475		-1.819465011
Al		-0.447842056		1.073798236		1.281706136
Al		-3.019709298		0.457754658		-1.858862229
F		-3.531584295		0.314583536		-3.599794651
F		-1.376304073		-0.561663379		-1.842982468
F		-1.946185298		2.066301874		-1.891747786
F		-2.034051657		0.714583245		0.455723874
F		0.596166596		1.271026892		-0.294732625
F		-0.302891696		2.738439664		1.991700876
F		0.367912103		-0.354929636		2.049099648
F		-4.276276702		0.209115651		-0.580853193
F		0.746514729		1.249090728		-3.233892789
