12
-186.56215295
Al		-0.36687012		1.048392002		-1.819385386
Al		-0.447499791		1.068727177		1.282113179
Al		-3.017623809		0.449928182		-1.859342625
F		-3.530381247		0.313017496		-3.600450173
F		-1.36752244		-0.557018914		-1.849830022
F		-1.955516907		2.067286627		-1.885231031
F		-2.032027761		0.703464067		0.455709811
F		0.59371836		1.281665723		-0.294354835
F		-0.313423903		2.731717452		2.000061305
F		0.378700874		-0.357344013		2.04172897
F		-4.271699465		0.187652916		-0.581357697
F		0.741635407		1.275149173		-3.23376289
