12
-186.56215295
Al		-0.367133535		1.049790117		-1.819377261
Al		-0.447464866		1.068209722		1.282154714
Al		-3.017411004		0.449129562		-1.859391645
F		-3.530258487		0.312857696		-3.600517063
F		-1.366626355		-0.556544989		-1.850528752
F		-1.956469112		2.067387112		-1.884566056
F		-2.031821241		0.702329457		0.455708376
F		0.59346854		1.282751318		-0.294316285
F		-0.314498618		2.731031512		2.00091441
F		0.379801769		-0.357590378		2.04097686
F		-4.2712324		0.185462841		-0.581409177
F		0.741137517		1.277808198		-3.233749635
