12
-186.56215295
Al		-0.367291584		1.050628986		-1.819372386
Al		-0.447443911		1.067899249		1.282179635
Al		-3.017283321		0.44865039		-1.859421057
F		-3.530184831		0.312761816		-3.600557197
F		-1.366088704		-0.556260634		-1.85094799
F		-1.957040435		2.067447403		-1.884167071
F		-2.031697329		0.701648691		0.455707515
F		0.593318648		1.283402675		-0.294293155
F		-0.315143447		2.730619948		2.001426273
F		0.380462306		-0.357738197		2.040525594
F		-4.270952161		0.184148796		-0.581440065
F		0.740838783		1.279403613		-3.233741682
