12
-186.56215295
Al		-0.367660365		1.052586347		-1.819361011
Al		-0.447395016		1.067174812		1.282237784
Al		-3.016985394		0.447532322		-1.859489685
F		-3.530012967		0.312538096		-3.600650843
F		-1.364834185		-0.555597139		-1.851926212
F		-1.958373522		2.067588082		-1.883236106
F		-2.031408201		0.700060237		0.455705506
F		0.5929689		1.284922508		-0.294239185
F		-0.316648048		2.729659632		2.00262062
F		0.382003559		-0.358083108		2.03947264
F		-4.27029827		0.181082691		-0.581512137
F		0.740141737		1.283126248		-3.233723125
