12
-186.56215295
Al		-0.364394019		1.035249721		-1.819461761
Al		-0.447828086		1.073591254		1.28172275
Al		-3.019624176		0.45743521		-1.858881837
F		-3.531535191		0.314519616		-3.599821407
F		-1.375945639		-0.561473809		-1.84326196
F		-1.94656618		2.066342068		-1.891481796
F		-2.033969049		0.714129401		0.4557233
F		0.596066668		1.27146113		-0.294717205
F		-0.303321582		2.738165288		1.992042118
F		0.368352461		-0.355028182		2.048798804
F		-4.276089876		0.208239621		-0.580873785
F		0.746315573		1.250154338		-3.233887487
