12
-186.56215295
Al		-0.367765731		1.053145593		-1.819357761
Al		-0.447381046		1.06696783		1.282254398
Al		-3.016900272		0.447212874		-1.859509293
F		-3.529963863		0.312474176		-3.600677599
F		-1.364475751		-0.555407569		-1.852205704
F		-1.958754404		2.067628276		-1.882970116
F		-2.031325593		0.699606393		0.455704932
F		0.592868972		1.285356746		-0.294223765
F		-0.317077934		2.729385256		2.002961862
F		0.382443917		-0.358181654		2.039171796
F		-4.270111444		0.180206661		-0.581532729
F		0.739942581		1.284189858		-3.233717823
