12
-186.56215295
Al		-0.36792378		1.053984462		-1.819352886
Al		-0.447360091		1.066657357		1.282279319
Al		-3.016772589		0.446733702		-1.859538705
F		-3.529890207		0.312378296		-3.600717733
F		-1.3639381		-0.555123214		-1.852624942
F		-1.959325727		2.067688567		-1.882571131
F		-2.031201681		0.698925627		0.455704071
F		0.59271908		1.286008103		-0.294200635
F		-0.317722763		2.728973692		2.003473725
F		0.383104454		-0.358329473		2.03872053
F		-4.269831205		0.178892616		-0.581563617
F		0.739643847		1.285785273		-3.23370987
