12
-186.56215295
Al		-0.368187195		1.055382577		-1.819344761
Al		-0.447325166		1.066139902		1.282320854
Al		-3.016559784		0.445935082		-1.859587725
F		-3.529767447		0.312218496		-3.600784623
F		-1.363042015		-0.554649289		-1.853323672
F		-1.960277932		2.067789052		-1.881906156
F		-2.030995161		0.697791017		0.455702636
F		0.59246926		1.287093698		-0.294162085
F		-0.318797478		2.728287752		2.00432683
F		0.384205349		-0.358575838		2.03796842
F		-4.26936414		0.176702541		-0.581615097
F		0.739145957		1.288444298		-3.233696615
