12
-186.56215295
Al		-0.364446702		1.035529344		-1.819460136
Al		-0.447821101		1.073487763		1.281731057
Al		-3.019581615		0.457275486		-1.858891641
F		-3.531510639		0.314487656		-3.599834785
F		-1.375766422		-0.561379024		-1.843401706
F		-1.946756621		2.066362165		-1.891348801
F		-2.033927745		0.713902479		0.455723013
F		0.596016704		1.271678249		-0.294709495
F		-0.303536525		2.7380281		1.992212739
F		0.36857264		-0.355077455		2.048648382
F		-4.275996463		0.207801606		-0.580884081
F		0.746215995		1.250686143		-3.233884836
