12
-186.56215295
Al		-0.368239878		1.0556622		-1.819343136
Al		-0.447318181		1.066036411		1.282329161
Al		-3.016517223		0.445775358		-1.859597529
F		-3.529742895		0.312186536		-3.600798001
F		-1.362862798		-0.554554504		-1.853463418
F		-1.960468373		2.067809149		-1.881773161
F		-2.030953857		0.697564095		0.455702349
F		0.592419296		1.287310817		-0.294154375
F		-0.319012421		2.728150564		2.004497451
F		0.384425528		-0.358625111		2.037817998
F		-4.269270727		0.176264526		-0.581625393
F		0.739046379		1.288976103		-3.233693964
