12
-186.56215295
Al		-0.368345244		1.056221446		-1.819339886
Al		-0.447304211		1.065829429		1.282345775
Al		-3.016432101		0.44545591		-1.859617137
F		-3.529693791		0.312122616		-3.600824757
F		-1.362504364		-0.554364934		-1.85374291
F		-1.960849255		2.067849343		-1.881507171
F		-2.030871249		0.697110251		0.455701775
F		0.592319368		1.287745055		-0.294138955
F		-0.319442307		2.727876188		2.004838693
F		0.384865886		-0.358723657		2.037517154
F		-4.269083901		0.175388496		-0.581645985
F		0.738847223		1.290039713		-3.233688662
