12
-186.56215295
Al		-0.368397927		1.056501069		-1.819338261
Al		-0.447297226		1.065725938		1.282354082
Al		-3.01638954		0.445296186		-1.859626941
F		-3.529669239		0.312090656		-3.600838135
F		-1.362325147		-0.554270149		-1.853882656
F		-1.961039696		2.06786944		-1.881374176
F		-2.030829945		0.696883329		0.455701488
F		0.592269404		1.287962174		-0.294131245
F		-0.31965725		2.727739		2.005009314
F		0.385086065		-0.35877293		2.037366732
F		-4.268990488		0.174950481		-0.581656281
F		0.738747645		1.290571518		-3.233686011
