12
-186.56215295
Al		-0.364499385		1.035808967		-1.819458511
Al		-0.447814116		1.073384272		1.281739364
Al		-3.019539054		0.457115762		-1.858901445
F		-3.531486087		0.314455696		-3.599848163
F		-1.375587205		-0.561284239		-1.843541452
F		-1.946947062		2.066382262		-1.891215806
F		-2.033886441		0.713675557		0.455722726
F		0.59596674		1.271895368		-0.294701785
F		-0.303751468		2.737890912		1.99238336
F		0.368792819		-0.355126728		2.04849796
F		-4.27590305		0.207363591		-0.580894377
F		0.746116417		1.251217948		-3.233882185
