12
-186.56215295
Al		-0.368766708		1.05845843		-1.819326886
Al		-0.447248331		1.065001501		1.282412231
Al		-3.016091613		0.444178118		-1.859695569
F		-3.529497375		0.311866936		-3.600931781
F		-1.361070628		-0.553606654		-1.854860878
F		-1.962372783		2.068010119		-1.880443211
F		-2.030540817		0.695294875		0.455699479
F		0.591919656		1.289482007		-0.294077275
F		-0.321161851		2.726778684		2.006203661
F		0.386627318		-0.359117841		2.036313778
F		-4.268336597		0.171884376		-0.581728353
F		0.738050599		1.294294153		-3.233667454
