12
-186.56215295
Al		-0.36897744		1.059576922		-1.819320386
Al		-0.447220391		1.064587537		1.282445459
Al		-3.015921369		0.443539222		-1.859734785
F		-3.529399167		0.311739096		-3.600985293
F		-1.36035376		-0.553227514		-1.855419862
F		-1.963134547		2.068090507		-1.879911231
F		-2.030375601		0.694387187		0.455698331
F		0.5917198		1.290350483		-0.294046435
F		-0.322021623		2.726229932		2.006886145
F		0.387508034		-0.359314933		2.03571209
F		-4.267962945		0.170132316		-0.581769537
F		0.737652287		1.296421373		-3.23365685
