12
-186.56215295
Al		-0.369082806		1.060136168		-1.819317136
Al		-0.447206421		1.064380555		1.282462073
Al		-3.015836247		0.443219774		-1.859754393
F		-3.529350063		0.311675176		-3.601012049
F		-1.359995326		-0.553037944		-1.855699354
F		-1.963515429		2.068130701		-1.879645241
F		-2.030292993		0.693933343		0.455697757
F		0.591619872		1.290784721		-0.294031015
F		-0.322451509		2.725955556		2.007227387
F		0.387948392		-0.359413479		2.035411246
F		-4.267776119		0.169256286		-0.581790129
F		0.737453131		1.297484983		-3.233651548
