12
-186.56215295
Al		-0.363129627		1.028538769		-1.819500761
Al		-0.447995726		1.076075038		1.281523382
Al		-3.02064564		0.461268586		-1.858646541
F		-3.532124439		0.315286656		-3.599500335
F		-1.380246847		-0.563748649		-1.839908056
F		-1.941995596		2.06585974		-1.894673676
F		-2.034960345		0.719575529		0.455730188
F		0.597265804		1.266250274		-0.294902245
F		-0.29816295		2.7414578		1.987947214
F		0.363068165		-0.35384563		2.052408932
F		-4.278331788		0.218751981		-0.580626681
F		0.748705445		1.237391018		-3.233951111
