12
-186.56215295
Al		-0.363024261		1.027979523		-1.819504011
Al		-0.448009696		1.07628202		1.281506768
Al		-3.020730762		0.461588034		-1.858626933
F		-3.532173543		0.315350576		-3.599473579
F		-1.380605281		-0.563938219		-1.839628564
F		-1.941614714		2.065819546		-1.894939666
F		-2.035042953		0.720029373		0.455730762
F		0.597365732		1.265816036		-0.294917665
F		-0.297733064		2.741732176		1.987605972
F		0.362627807		-0.353747084		2.052709776
F		-4.278518614		0.219628011		-0.580606089
F		0.748904601		1.236327408		-3.233956413
