12
-186.56215295
Al		-0.362918895		1.027420277		-1.819507261
Al		-0.448023666		1.076489002		1.281490154
Al		-3.020815884		0.461907482		-1.858607325
F		-3.532222647		0.315414496		-3.599446823
F		-1.380963715		-0.564127789		-1.839349072
F		-1.941233832		2.065779352		-1.895205656
F		-2.035125561		0.720483217		0.455731336
F		0.59746566		1.265381798		-0.294933085
F		-0.297303178		2.742006552		1.98726473
F		0.362187449		-0.353648538		2.05301062
F		-4.27870544		0.220504041		-0.580585497
F		0.749103757		1.235263798		-3.233961715
