12
-186.56215295
Al		-0.362866212		1.027140654		-1.819508886
Al		-0.448030651		1.076592493		1.281481847
Al		-3.020858445		0.462067206		-1.858597521
F		-3.532247199		0.315446456		-3.599433445
F		-1.381142932		-0.564222574		-1.839209326
F		-1.941043391		2.065759255		-1.895338651
F		-2.035166865		0.720710139		0.455731623
F		0.597515624		1.265164679		-0.294940795
F		-0.297088235		2.74214374		1.987094109
F		0.36196727		-0.353599265		2.053161042
F		-4.278798853		0.220942056		-0.580575201
F		0.749203335		1.234731993		-3.233964366
