12
-186.56215295
Al		-0.362813529		1.026861031		-1.819510511
Al		-0.448037636		1.076695984		1.28147354
Al		-3.020901006		0.46222693		-1.858587717
F		-3.532271751		0.315478416		-3.599420067
F		-1.381322149		-0.564317359		-1.83906958
F		-1.94085295		2.065739158		-1.895471646
F		-2.035208169		0.720937061		0.45573191
F		0.597565588		1.26494756		-0.294948505
F		-0.296873292		2.742280928		1.986923488
F		0.361747091		-0.353549992		2.053311464
F		-4.278892266		0.221380071		-0.580564905
F		0.749302913		1.234200188		-3.233967017
