12
-186.56215295
Al		-0.36265548		1.026022162		-1.819515386
Al		-0.448058591		1.077006457		1.281448619
Al		-3.021028689		0.462706102		-1.858558305
F		-3.532345407		0.315574296		-3.599379933
F		-1.3818598		-0.564601714		-1.838650342
F		-1.940281627		2.065678867		-1.895870631
F		-2.035332081		0.721617827		0.455732771
F		0.59771548		1.264296203		-0.294971635
F		-0.296228463		2.742692492		1.986411625
F		0.361086554		-0.353402173		2.05376273
F		-4.279172505		0.222694116		-0.580534017
F		0.749601647		1.232604773		-3.23397497
