12
-186.56215295
Al		-0.362602797		1.025742539		-1.819517011
Al		-0.448065576		1.077109948		1.281440312
Al		-3.02107125		0.462865826		-1.858548501
F		-3.532369959		0.315606256		-3.599366555
F		-1.382039017		-0.564696499		-1.838510596
F		-1.940091186		2.06565877		-1.896003626
F		-2.035373385		0.721844749		0.455733058
F		0.597765444		1.264079084		-0.294979345
F		-0.29601352		2.74282968		1.986241004
F		0.360866375		-0.3533529		2.053913152
F		-4.279265918		0.223132131		-0.580523721
F		0.749701225		1.232072968		-3.233977621
