12
-186.56215295
Al		-0.362339382		1.024344424		-1.819525136
Al		-0.448100501		1.077627403		1.281398777
Al		-3.021284055		0.463664446		-1.858499481
F		-3.532492719		0.315766056		-3.599299665
F		-1.382935102		-0.565170424		-1.837811866
F		-1.939138981		2.065558285		-1.896668601
F		-2.035579905		0.722979359		0.455734493
F		0.598015264		1.262993489		-0.295017895
F		-0.294938805		2.74351562		1.985387899
F		0.35976548		-0.353106535		2.054665262
F		-4.279732983		0.225322206		-0.580472241
F		0.750199115		1.229413943		-3.233990876
