12
-186.56215295
Al		-0.362286699		1.024064801		-1.819526761
Al		-0.448107486		1.077730894		1.28139047
Al		-3.021326616		0.46382417		-1.858489677
F		-3.532517271		0.315798016		-3.599286287
F		-1.383114319		-0.565265209		-1.83767212
F		-1.93894854		2.065538188		-1.896801596
F		-2.035621209		0.723206281		0.45573478
F		0.598065228		1.26277637		-0.295025605
F		-0.294723862		2.743652808		1.985217278
F		0.359545301		-0.353057262		2.054815684
F		-4.279826396		0.225760221		-0.580461945
F		0.750298693		1.228882138		-3.233993527
