12
-186.56215295
Al		-0.36212865		1.023225932		-1.819531636
Al		-0.448128441		1.078041367		1.281365549
Al		-3.021454299		0.464303342		-1.858460265
F		-3.532590927		0.315893896		-3.599246153
F		-1.38365197		-0.565549564		-1.837252882
F		-1.938377217		2.065477897		-1.897200581
F		-2.035745121		0.723887047		0.455735641
F		0.59821512		1.262125013		-0.295048735
F		-0.294079033		2.744064372		1.984705415
F		0.358884764		-0.352909443		2.05526695
F		-4.280106635		0.227074266		-0.580431057
F		0.750597427		1.227286723		-3.23400148
