12
-186.56215295
Al		-0.362075967		1.022946309		-1.819533261
Al		-0.448135426		1.078144858		1.281357242
Al		-3.02149686		0.464463066		-1.858450461
F		-3.532615479		0.315925856		-3.599232775
F		-1.383831187		-0.565644349		-1.837113136
F		-1.938186776		2.0654578		-1.897333576
F		-2.035786425		0.724113969		0.455735928
F		0.598265084		1.261907894		-0.295056445
F		-0.29386409		2.74420156		1.984534794
F		0.358664585		-0.35286017		2.055417372
F		-4.280200048		0.227512281		-0.580420761
F		0.750697005		1.226754918		-3.234004131
