12
-186.56215295
Al		-0.362023284		1.022666686		-1.819534886
Al		-0.448142411		1.078248349		1.281348935
Al		-3.021539421		0.46462279		-1.858440657
F		-3.532640031		0.315957816		-3.599219397
F		-1.384010404		-0.565739134		-1.83697339
F		-1.937996335		2.065437703		-1.897466571
F		-2.035827729		0.724340891		0.455736215
F		0.598315048		1.261690775		-0.295064155
F		-0.293649147		2.744338748		1.984364173
F		0.358444406		-0.352810897		2.055567794
F		-4.280293461		0.227950296		-0.580410465
F		0.750796583		1.226223113		-3.234006782
