12
-186.56215295
Al		-0.361970601		1.022387063		-1.819536511
Al		-0.448149396		1.07835184		1.281340628
Al		-3.021581982		0.464782514		-1.858430853
F		-3.532664583		0.315989776		-3.599206019
F		-1.384189621		-0.565833919		-1.836833644
F		-1.937805894		2.065417606		-1.897599566
F		-2.035869033		0.724567813		0.455736502
F		0.598365012		1.261473656		-0.295071865
F		-0.293434204		2.744475936		1.984193552
F		0.358224227		-0.352761624		2.055718216
F		-4.280386874		0.228388311		-0.580400169
F		0.750896161		1.225691308		-3.234009433
