12
-186.56215295
Al		-0.361917918		1.02210744		-1.819538136
Al		-0.448156381		1.078455331		1.281332321
Al		-3.021624543		0.464942238		-1.858421049
F		-3.532689135		0.316021736		-3.599192641
F		-1.384368838		-0.565928704		-1.836693898
F		-1.937615453		2.065397509		-1.897732561
F		-2.035910337		0.724794735		0.455736789
F		0.598414976		1.261256537		-0.295079575
F		-0.293219261		2.744613124		1.984022931
F		0.358004048		-0.352712351		2.055868638
F		-4.280480287		0.228826326		-0.580389873
F		0.750995739		1.225159503		-3.234012084
