12
-186.56215295
Al		-0.361759869		1.021268571		-1.819543011
Al		-0.448177336		1.078765804		1.2813074
Al		-3.021752226		0.46542141		-1.858391637
F		-3.532762791		0.316117616		-3.599152507
F		-1.384906489		-0.566213059		-1.83627466
F		-1.93704413		2.065337218		-1.898131546
F		-2.036034249		0.725475501		0.45573765
F		0.598564868		1.26060518		-0.295102705
F		-0.292574432		2.745024688		1.983511068
F		0.357343511		-0.352564532		2.056319904
F		-4.280760526		0.230140371		-0.580358985
F		0.751294473		1.223564088		-3.234020037
