12
-186.56215295
Al		-0.361707186		1.020988948		-1.819544636
Al		-0.448184321		1.078869295		1.281299093
Al		-3.021794787		0.465581134		-1.858381833
F		-3.532787343		0.316149576		-3.599139129
F		-1.385085706		-0.566307844		-1.836134914
F		-1.936853689		2.065317121		-1.898264541
F		-2.036075553		0.725702423		0.455737937
F		0.598614832		1.260388061		-0.295110415
F		-0.292359489		2.745161876		1.983340447
F		0.357123332		-0.352515259		2.056470326
F		-4.280853939		0.230578386		-0.580348689
F		0.751394051		1.223032283		-3.234022688
