12
-186.56215295
Al		-0.361285722		1.018751964		-1.819557636
Al		-0.448240201		1.079697223		1.281232637
Al		-3.022135275		0.466858926		-1.858303401
F		-3.532983759		0.316405256		-3.599032105
F		-1.386519442		-0.567066124		-1.835016946
F		-1.935330161		2.065156345		-1.899328501
F		-2.036405985		0.727517799		0.455740233
F		0.599014544		1.258651109		-0.295172095
F		-0.290639945		2.74625938		1.981975479
F		0.3553619		-0.352121075		2.057673702
F		-4.281601243		0.234082506		-0.580266321
F		0.752190675		1.218777843		-3.234043896
