12
-186.56215295
Al		-0.361127673		1.017913095		-1.819562511
Al		-0.448261156		1.080007696		1.281207716
Al		-3.022262958		0.467338098		-1.858273989
F		-3.533057415		0.316501136		-3.598991971
F		-1.387057093		-0.567350479		-1.834597708
F		-1.934758838		2.065096054		-1.899727486
F		-2.036529897		0.728198565		0.455741094
F		0.599164436		1.257999752		-0.295195225
F		-0.289995116		2.746670944		1.981463616
F		0.354701363		-0.351973256		2.058124968
F		-4.281881482		0.235396551		-0.580235433
F		0.752489409		1.217182428		-3.234051849
