12
-186.56215295
Al		-0.360969624		1.017074226		-1.819567386
Al		-0.448282111		1.080318169		1.281182795
Al		-3.022390641		0.46781727		-1.858244577
F		-3.533131071		0.316597016		-3.598951837
F		-1.387594744		-0.567634834		-1.83417847
F		-1.934187515		2.065035763		-1.900126471
F		-2.036653809		0.728879331		0.455741955
F		0.599314328		1.257348395		-0.295218355
F		-0.289350287		2.747082508		1.980951753
F		0.354040826		-0.351825437		2.058576234
F		-4.282161721		0.236710596		-0.580204545
F		0.752788143		1.215587013		-3.234059802
