12
-186.56215295
Al		-0.360916941		1.016794603		-1.819569011
Al		-0.448289096		1.08042166		1.281174488
Al		-3.022433202		0.467976994		-1.858234773
F		-3.533155623		0.316628976		-3.598938459
F		-1.387773961		-0.567729619		-1.834038724
F		-1.933997074		2.065015666		-1.900259466
F		-2.036695113		0.729106253		0.455742242
F		0.599364292		1.257131276		-0.295226065
F		-0.289135344		2.747219696		1.980781132
F		0.353820647		-0.351776164		2.058726656
F		-4.282255134		0.237148611		-0.580194249
F		0.752887721		1.215055208		-3.234062453
