12
-186.56215295
Al		-0.36370914		1.031614622		-1.819482886
Al		-0.447918891		1.074936637		1.281614759
Al		-3.020177469		0.459511622		-1.858754385
F		-3.531854367		0.314935096		-3.599647493
F		-1.37827546		-0.562706014		-1.841445262
F		-1.944090447		2.066080807		-1.893210731
F		-2.034506001		0.717079387		0.455727031
F		0.5967162		1.268638583		-0.294817435
F		-0.300527323		2.739948732		1.989824045
F		0.365490134		-0.354387633		2.05075429
F		-4.277304245		0.213933816		-0.580739937
F		0.747610087		1.243240873		-3.23392195
