12
-186.56215295
Al		-0.360811575		1.016235357		-1.819572261
Al		-0.448303066		1.080628642		1.281157874
Al		-3.022518324		0.468296442		-1.858215165
F		-3.533204727		0.316692896		-3.598911703
F		-1.388132395		-0.567919189		-1.833759232
F		-1.933616192		2.064975472		-1.900525456
F		-2.036777721		0.729560097		0.455742816
F		0.59946422		1.256697038		-0.295241485
F		-0.288705458		2.747494072		1.98043989
F		0.353380289		-0.351677618		2.0590275
F		-4.28244196		0.238024641		-0.580173657
F		0.753086877		1.213991598		-3.234067755
