12
-186.56215295
Al		-0.360758892		1.015955734		-1.819573886
Al		-0.448310051		1.080732133		1.281149567
Al		-3.022560885		0.468456166		-1.858205361
F		-3.533229279		0.316724856		-3.598898325
F		-1.388311612		-0.568013974		-1.833619486
F		-1.933425751		2.064955375		-1.900658451
F		-2.036819025		0.729787019		0.455743103
F		0.599514184		1.256479919		-0.295249195
F		-0.288490515		2.74763126		1.980269269
F		0.35316011		-0.351628345		2.059177922
F		-4.282535373		0.238462656		-0.580163361
F		0.753186455		1.213459793		-3.234070406
