12
-186.56215295
Al		-0.360706209		1.015676111		-1.819575511
Al		-0.448317036		1.080835624		1.28114126
Al		-3.022603446		0.46861589		-1.858195557
F		-3.533253831		0.316756816		-3.598884947
F		-1.388490829		-0.568108759		-1.83347974
F		-1.93323531		2.064935278		-1.900791446
F		-2.036860329		0.730013941		0.45574339
F		0.599564148		1.2562628		-0.295256905
F		-0.288275572		2.747768448		1.980098648
F		0.352939931		-0.351579072		2.059328344
F		-4.282628786		0.238900671		-0.580153065
F		0.753286033		1.212927988		-3.234073057
