12
-186.56215295
Al		-0.360653526		1.015396488		-1.819577136
Al		-0.448324021		1.080939115		1.281132953
Al		-3.022646007		0.468775614		-1.858185753
F		-3.533278383		0.316788776		-3.598871569
F		-1.388670046		-0.568203544		-1.833339994
F		-1.933044869		2.064915181		-1.900924441
F		-2.036901633		0.730240863		0.455743677
F		0.599614112		1.256045681		-0.295264615
F		-0.288060629		2.747905636		1.979928027
F		0.352719752		-0.351529799		2.059478766
F		-4.282722199		0.239338686		-0.580142769
F		0.753385611		1.212396183		-3.234075708
