12
-186.56215295
Al		-0.360284745		1.013439127		-1.819588511
Al		-0.448372916		1.081663552		1.281074804
Al		-3.022943934		0.469893682		-1.858117125
F		-3.533450247		0.317012496		-3.598777923
F		-1.389924565		-0.568867039		-1.832361772
F		-1.931711782		2.064774502		-1.901855406
F		-2.037190761		0.731829317		0.455745686
F		0.59996386		1.254525848		-0.295318585
F		-0.286556028		2.748865952		1.97873368
F		0.351178499		-0.351184888		2.06053172
F		-4.28337609		0.242404791		-0.580070697
F		0.754082657		1.208673548		-3.234094265
