12
-186.56215295
Al		-0.360232062		1.013159504		-1.819590136
Al		-0.448379901		1.081767043		1.281066497
Al		-3.022986495		0.470053406		-1.858107321
F		-3.533474799		0.317044456		-3.598764545
F		-1.390103782		-0.568961824		-1.832222026
F		-1.931521341		2.064754405		-1.901988401
F		-2.037232065		0.732056239		0.455745973
F		0.600013824		1.254308729		-0.295326295
F		-0.286341085		2.74900314		1.978563059
F		0.35095832		-0.351135615		2.060682142
F		-4.283469503		0.242842806		-0.580060401
F		0.754182235		1.208141743		-3.234096916
