12
-186.56215295
Al		-0.36002133		1.012041012		-1.819596636
Al		-0.448407841		1.082181007		1.281033269
Al		-3.023156739		0.470692302		-1.858068105
F		-3.533573007		0.317172296		-3.598711033
F		-1.39082065		-0.569340964		-1.831663042
F		-1.930759577		2.064674017		-1.902520381
F		-2.037397281		0.732963927		0.455747121
F		0.60021368		1.253440253		-0.295357135
F		-0.285481313		2.749551892		1.977880575
F		0.350077604		-0.350938523		2.06128383
F		-4.283843155		0.244594866		-0.580019217
F		0.754580547		1.206014523		-3.23410752
