12
-186.56215295
Al		-0.359915964		1.011481766		-1.819599886
Al		-0.448421811		1.082387989		1.281016655
Al		-3.023241861		0.47101175		-1.858048497
F		-3.533622111		0.317236216		-3.598684277
F		-1.391179084		-0.569530534		-1.83138355
F		-1.930378695		2.064633823		-1.902786371
F		-2.037479889		0.733417771		0.455747695
F		0.600313608		1.253006015		-0.295372555
F		-0.285051427		2.749826268		1.977539333
F		0.349637246		-0.350839977		2.061584674
F		-4.284029981		0.245470896		-0.579998625
F		0.754779703		1.204950913		-3.234112822
