12
-186.56215295
Al		-0.363603774		1.031055376		-1.819486136
Al		-0.447932861		1.075143619		1.281598145
Al		-3.020262591		0.45983107		-1.858734777
F		-3.531903471		0.314999016		-3.599620737
F		-1.378633894		-0.562895584		-1.84116577
F		-1.943709565		2.066040613		-1.893476721
F		-2.034588609		0.717533231		0.455727605
F		0.596816128		1.268204345		-0.294832855
F		-0.300097437		2.740223108		1.989482803
F		0.365049776		-0.354289087		2.051055134
F		-4.277491071		0.214809846		-0.580719345
F		0.747809243		1.242177263		-3.233927252
