12
-186.56215295
Al		-0.359810598		1.01092252		-1.819603136
Al		-0.448435781		1.082594971		1.281000041
Al		-3.023326983		0.471331198		-1.858028889
F		-3.533671215		0.317300136		-3.598657521
F		-1.391537518		-0.569720104		-1.831104058
F		-1.929997813		2.064593629		-1.903052361
F		-2.037562497		0.733871615		0.455748269
F		0.600413536		1.252571777		-0.295387975
F		-0.284621541		2.750100644		1.977198091
F		0.349196888		-0.350741431		2.061885518
F		-4.284216807		0.246346926		-0.579978033
F		0.754978859		1.203887303		-3.234118124
