12
-186.56215295
Al		-0.359757915		1.010642897		-1.819604761
Al		-0.448442766		1.082698462		1.280991734
Al		-3.023369544		0.471490922		-1.858019085
F		-3.533695767		0.317332096		-3.598644143
F		-1.391716735		-0.569814889		-1.830964312
F		-1.929807372		2.064573532		-1.903185356
F		-2.037603801		0.734098537		0.455748556
F		0.6004635		1.252354658		-0.295395685
F		-0.284406598		2.750237832		1.97702747
F		0.348976709		-0.350692158		2.06203594
F		-4.28431022		0.246784941		-0.579967737
F		0.755078437		1.203355498		-3.234120775
