12
-186.56215295
Al		-0.359547183		1.009524405		-1.819611261
Al		-0.448470706		1.083112426		1.280958506
Al		-3.023539788		0.472129818		-1.857979869
F		-3.533793975		0.317459936		-3.598590631
F		-1.392433603		-0.570194029		-1.830405328
F		-1.929045608		2.064493144		-1.903717336
F		-2.037769017		0.735006225		0.455749704
F		0.600663356		1.251486182		-0.295426525
F		-0.283546826		2.750786584		1.976344986
F		0.348095993		-0.350495066		2.062637628
F		-4.284683872		0.248537001		-0.579926553
F		0.755476749		1.201228278		-3.234131379
