12
-186.56215295
Al		-0.3594945		1.009244782		-1.819612886
Al		-0.448477691		1.083215917		1.280950199
Al		-3.023582349		0.472289542		-1.857970065
F		-3.533818527		0.317491896		-3.598577253
F		-1.39261282		-0.570288814		-1.830265582
F		-1.928855167		2.064473047		-1.903850331
F		-2.037810321		0.735233147		0.455749991
F		0.60071332		1.251269063		-0.295434235
F		-0.283331883		2.750923772		1.976174365
F		0.347875814		-0.350445793		2.06278805
F		-4.284777285		0.248975016		-0.579916257
F		0.755576327		1.200696473		-3.23413403
