12
-186.56215295
Al		-0.359441817		1.008965159		-1.819614511
Al		-0.448484676		1.083319408		1.280941892
Al		-3.02362491		0.472449266		-1.857960261
F		-3.533843079		0.317523856		-3.598563875
F		-1.392792037		-0.570383599		-1.830125836
F		-1.928664726		2.06445295		-1.903983326
F		-2.037851625		0.735460069		0.455750278
F		0.600763284		1.251051944		-0.295441945
F		-0.28311694		2.75106096		1.976003744
F		0.347655635		-0.35039652		2.062938472
F		-4.284870698		0.249413031		-0.579905961
F		0.755675905		1.200164668		-3.234136681
