12
-186.56215295
Al		-0.359283768		1.00812629		-1.819619386
Al		-0.448505631		1.083629881		1.280916971
Al		-3.023752593		0.472928438		-1.857930849
F		-3.533916735		0.317619736		-3.598523741
F		-1.393329688		-0.570667954		-1.829706598
F		-1.928093403		2.064392659		-1.904382311
F		-2.037975537		0.736140835		0.455751139
F		0.600913176		1.250400587		-0.295465075
F		-0.282472111		2.751472524		1.975491881
F		0.346995098		-0.350248701		2.063389738
F		-4.285150937		0.250727076		-0.579875073
F		0.755974639		1.198569253		-3.234144634
