12
-186.56215295
Al		-0.359020353		1.006728175		-1.819627511
Al		-0.448540556		1.084147336		1.280875436
Al		-3.023965398		0.473727058		-1.857881829
F		-3.534039495		0.317779536		-3.598456851
F		-1.394225773		-0.571141879		-1.829007868
F		-1.927141198		2.064292174		-1.905047286
F		-2.038182057		0.737275445		0.455752574
F		0.601162996		1.249314992		-0.295503625
F		-0.281397396		2.752158464		1.974638776
F		0.345894203		-0.350002336		2.064141848
F		-4.285618002		0.252917151		-0.579823593
F		0.756472529		1.195910228		-3.234157889
