12
-186.56215295
Al		-0.35896767		1.006448552		-1.819629136
Al		-0.448547541		1.084250827		1.280867129
Al		-3.024007959		0.473886782		-1.857872025
F		-3.534064047		0.317811496		-3.598443473
F		-1.39440499		-0.571236664		-1.828868122
F		-1.926950757		2.064272077		-1.905180281
F		-2.038223361		0.737502367		0.455752861
F		0.60121296		1.249097873		-0.295511335
F		-0.281182453		2.752295652		1.974468155
F		0.345674024		-0.349953063		2.06429227
F		-4.285711415		0.253355166		-0.579813297
F		0.756572107		1.195378423		-3.23416054
