12
-186.56215295
Al		-0.358914987		1.006168929		-1.819630761
Al		-0.448554526		1.084354318		1.280858822
Al		-3.02405052		0.474046506		-1.857862221
F		-3.534088599		0.317843456		-3.598430095
F		-1.394584207		-0.571331449		-1.828728376
F		-1.926760316		2.06425198		-1.905313276
F		-2.038264665		0.737729289		0.455753148
F		0.601262924		1.248880754		-0.295519045
F		-0.28096751		2.75243284		1.974297534
F		0.345453845		-0.34990379		2.064442692
F		-4.285804828		0.253793181		-0.579803001
F		0.756671685		1.194846618		-3.234163191
