12
Properties=species:S:1:pos:R:3:forces:R:3 energy=-187.38185304 pbc="F F F"
Al    1.28430768    -0.023966783    2.367988173    0.024462    -0.049448    -0.06054
Al    1.352029    1.259934    -0.09670000000000001    0.008086    0.007596    -0.001464
Al    -0.37621286200000004    0.8566120500000001    -2.2363678730000003    -0.035986    0.038624    0.062619
F    -1.936927072    -0.05799445300000003    -1.8852623060000002    -0.048708    -0.041029    0.008765
F    2.4180167530000003    -0.121784153    0.819885852    0.015573    -0.015168    0.015379
F    0.199480139    1.38861909    -3.941746033    0.034465    0.043682    -0.086512
F    -0.12949861    2.251272353    -0.938085549    -0.017097    0.013736    -0.015103
F    2.650762557    2.480031512    -0.331734443    -0.001512    -0.001421    0.000274
F    1.071460239    -0.11926629500000001    -1.4218429540000002    0.053052    -0.0532    -0.004467
F    0.237063717    1.328098029    1.4809968390000001    -0.049    0.057007    0.003735
F    2.153923669    0.801824676    3.8118044369999997    0.060729    0.045745    0.06929
F    0.251736575    -1.545623352    2.486194771    -0.044061    -0.046123    0.008024
