12
Properties=species:S:1:pos:R:3:forces:R:3 energy=-180.46126337 pbc="F F F"
Al    -1.716917761    2.58803722    -1.239733091    -0.189241    -1.045273    -0.366265
Al    -0.6550776549999999    0.288971906    -2.172155374    -6.472662    -0.173422    6.777927
Al    -2.0954923759999997    -0.0041016179999999736    -0.591575537    5.94821    2.3538    -6.85159
F    -0.785075241    3.7032860359999997    -0.183735857    -0.149131    -0.21984    -0.17667
F    -3.035563847    3.226679893    -2.3230248920000003    -0.162155    0.378058    -0.077675
F    -1.3743050799999998    -2.968560427    -1.957819161    -0.019063    -6.992075    -1.313859
F    -2.7346244619999998    1.2484031830000002    0.364898762    -1.865171    0.866347    3.000222
F    -2.991519063    -1.0002842319999998    0.33615565299999994    2.108176    1.87961    -2.249408
F    0.33421019799999996    -0.32361474100000004    -3.313196004    -2.308612    0.980952    2.597172
F    -0.017122424999999997    1.8013202140000002    -2.617039631    2.571354    1.769025    -1.868015
F    -2.552541157    0.605281851    -2.368902328    0.563319    -0.149427    0.485648
F    -0.199101468    0.276414439    -0.28514210799999995    -0.025024    0.352246    0.042512
