12
Properties=species:S:1:pos:R:3:forces:R:3 energy=-186.32769167 pbc="F F F"
Al    -1.665374761    2.5502004200000004    -1.236915291    -0.027312    -0.136152    -0.050137
Al    -0.7298358549999999    -0.015315294    -2.5202783739999997    0.02725    0.035662    -0.135941
Al    -2.050191476    -0.307478418    -0.343895837    -0.136342    0.002375    0.043569
F    -0.440796541    3.5212941360000003    -0.256835657    0.208517    0.12794    0.213749
F    -3.1136422469999996    3.277456493    -2.1051250919999998    -0.147305    0.02425    -0.129745
F    -1.27523698    -1.687468027    -1.575045961    0.028703    -0.201308    -0.011168
F    -2.4868399620000003    1.480807583    0.13022556200000002    -0.095753    -0.007668    0.056352
F    -2.855012763    -1.278581632    0.9810272529999999    0.004359    -0.025945    0.015708
F    0.256612398    -0.5938333410000001    -3.950355504    0.02053    -0.022654    -0.002037
F    -0.612372425    1.883392414    -2.688206531    0.045997    0.021171    -0.099191
F    -2.643995157    0.344138151    -2.183138728    -0.057101    0.091751    -0.035022
F    -0.210679368    0.39092273899999996    -0.584017408    0.128458    0.090578    0.133864
