      12
SCF Done            -186.32769167
Al           -1.683522761         2.546507420        -1.217001291
Al           -0.541456855         0.011254706        -2.363216374
Al           -2.219475476        -0.330163418        -0.521911837
F            -0.613348541         3.486186136        -0.067492657
F            -2.976990247         3.305260493        -2.255075092
F            -1.248384980        -1.682005027        -1.604509961
F            -2.685483962         1.450988583        -0.032581438
F            -3.214385763        -1.325880632         0.616885253
F             0.643221398        -0.540992341        -3.616100504
F            -0.436940425         1.908488414        -2.499928531
F            -2.488828157         0.375709151        -2.353405728
F            -0.361951368         0.360144739        -0.418025408
