12
Properties=species:S:1:pos:R:3:forces:R:3 energy=-185.75681618 pbc="F F F"
Al    -0.422158038    1.0219061600000001    -1.757764336    3.107794    0.719398    2.503414
Al    -0.408508914    1.0828474529999998    1.282926636    0.441738    0.099737    0.223652
Al    -3.282727719    0.391736089    -2.384182342    4.434814    0.986677    1.480211
F    -3.3451678609999997    0.364442008    -3.1077083080000003    -1.059241    -0.282672    -2.818238
F    -1.258611957    -0.633964501    -1.841057845    -1.532873    -0.275118    -0.100479
F    -1.8668852870000001    2.180569403    -1.894738583    -1.508897    -0.386058    -0.098363
F    -2.053071925    0.711626739    0.454390224    -0.519993    -0.116557    -0.218999
F    0.609510327    1.274227843    -0.21838171099999998    -1.204631    -0.308593    -2.529855
F    -0.309634575    2.719664197    1.980530347    -0.027831    -0.26143    -0.091049
F    0.351738715    -0.340574058    2.038894245    -0.132549    0.223116    -0.100289
F    -4.4018894920000005    0.18725007    -0.423966765    -1.588748    -0.317438    1.358999
F    0.852822027    1.266428137    -3.384428829    -0.409583    -0.081061    0.390995
