      12
SCF Done            -185.75681618
Al           -0.291008038         1.049956160        -1.773157336
Al           -0.436854914         1.076822453         1.288199636
Al           -2.925125719         0.479819089        -1.817990342
F            -3.559930861         0.306971008        -3.687430308
F            -1.416486957        -0.574019501        -1.844919845
F            -1.985899287         2.060701403        -1.895170583
F            -2.048767925         0.712453739         0.449004224
F             0.567453327         1.262521843        -0.355593711
F            -0.302945575         2.731915197         1.988705347
F             0.362823715        -0.348665058         2.047457245
F            -4.320941492         0.202549070        -0.539100765
F             0.734868027         1.244033137        -3.222053829
