      12
SCF Done            -167.27378277
Al           -0.291008038         1.049956160        -1.773157336
Al           -0.436854781         1.076822491         1.288199601
Al           -2.925125703         0.479819078        -1.817990609
F            -3.559930855         0.306970936        -3.687430561
F            -1.416486958        -0.574019504        -1.844919938
F            -1.985899293         2.060701389        -1.895170761
F            -2.048767777         0.712453855         0.449004109
F             0.567453416         1.262521897        -0.355593775
F            -0.302945381         2.731915204         1.988705371
F             0.362823808        -0.348665071         2.047457158
F            -4.320941367         0.202549126        -0.539100913
F             0.734868019         1.244033103        -3.222053844
