12
Properties=species:S:1:pos:R:3:forces:R:3 energy=-185.73100711 pbc="F F F"
Al    0.696260872    -2.192473911    -2.0621326609999997    0.127783    -0.347008    -0.556788
Al    2.29122623    -0.45072705599999996    -0.679677524    0.198536    0.298939    0.427311
Al    -0.08447910600000003    0.401698003    -1.6583753829999999    -0.207822    0.462607    0.294012
F    3.789192388    -0.119734016    0.187749477    0.060058    0.022974    0.025087
F    0.294274626    -3.889842293    -2.666422436    -0.065512    -0.277658    -0.079619
F    2.445256438    -1.540072176    -2.343186389    0.00186    -0.107522    -0.22143
F    1.7401814949999999    0.8941818389999999    -2.02231592    0.212922    0.299774    -0.264857
F    -1.3296931220000001    1.716872331    -1.9273746109999998    -0.046324    0.07105    -0.018763
F    -0.880175386    -1.345435052    -1.114197969    -0.318443    -0.088023    0.243965
F    0.22280192599999998    -0.742676109    -3.261505181    0.081652    -0.130256    -0.207799
F    0.637204196    0.291423798    0.124991298    -0.013191    -0.007503    -0.008507
F    1.342279134    -2.14283021    -0.195880073    -0.031516    -0.197375    0.367389
