12
Properties=species:S:1:pos:R:3:forces:R:3 energy=-186.39244059 pbc="F F F"
Al    0.07395734300000001    1.539710096    2.273235221    0.096985    -0.132261    0.022991
Al    2.527084196    2.829886525    1.685682275    0.105614    -0.064522    0.017932
Al    1.259059758    2.479823981    -0.6877959530000001    0.092616    -0.062143    0.047455
F    0.981901852    3.187142819    2.781198732    -0.036738    0.017907    0.01508
F    -1.570075447    2.429678843    2.225263995    -0.082234    0.059522    -0.000601
F    -0.14671795999999998    -0.102896918    3.0279112599999998    0.003808    0.051727    -0.017581
F    2.020591869    0.984540885    2.031144234    -0.012743    0.039408    -0.000442
F    2.999663842    1.9470431719999999    -0.09277645400000001    -0.064727    0.038845    -0.020444
F    0.906983214    2.7075022520000003    -2.4513319040000003    -0.013073    0.013748    -0.039143
F    1.5407123679999999    4.012825887    0.47518916499999997    -0.020688    0.041933    -0.006968
F    4.071606466    3.5649409110000003    2.295438168    -0.052276    -0.0089    -0.021282
F    0.0374821    1.552815668    0.292609505    -0.016545    0.004736    0.003005
