12
-187.38518821
Al		1.28288452		0.049146856		2.443836732
Al		1.276743162		1.189271707		-0.083159638
Al		-0.31930487		0.835553951		-2.322165547
F		-1.670653654		-0.370164808		-2.21850678
F		2.063288213		-0.351998907		0.755898981
F		0.049246714		1.820403659		-3.797761754
F		-0.359175699		1.932484965		-0.768360805
F		2.587754784		2.421032106		-0.320583958
F		1.262706487		0.041004685		-1.625690091
F		0.441404355		1.539479797		1.613228574
F		2.544179793		0.595644268		3.624235942
F		0.020867001		-1.200531214		2.813470917
