12
-187.38518821
Al		1.307877862		0.069059716		2.443885737
Al		1.2727002		1.1921137		-0.0907468
Al		-0.339865685		0.812525264		-2.313896473
F		-1.680340804		-0.396564544		-2.195172777
F		2.074576292		-0.340411254		0.752678313
F		0.015955984		1.794822554		-3.799005194
F		-0.371637126		1.921722081		-0.767342095
F		2.575699653		2.429506209		-0.343206844
F		1.254891823		0.034585228		-1.625463777
F		0.448045671		1.546724023		1.610800302
F		2.57042103		0.626180719		3.612250309
F		0.051541359		-1.188884359		2.829521886
