12
-187.38518821
Al		1.2854091		0.051158256		2.443841682
Al		1.276334782		1.189558777		-0.083926018
Al		-0.32138172		0.833227821		-2.321330287
F		-1.671632154		-0.372831448		-2.21614981
F		2.064428423		-0.350828437		0.755573661
F		0.045884014		1.817819709		-3.797887354
F		-0.360434429		1.931397805		-0.768257905
F		2.586537094		2.421888076		-0.322869098
F		1.261917127		0.040356255		-1.625667231
F		0.442075195		1.540211537		1.612983294
F		2.546830423		0.598728758		3.623025272
F		0.023965421		-1.199354764		2.815092227
