12
-187.38518821
Al		1.285661558		0.051359396		2.443842177
Al		1.276293944		1.189587484		-0.084002656
Al		-0.321589405		0.832995208		-2.321246761
F		-1.671730004		-0.373098112		-2.215914113
F		2.064542444		-0.35071139		0.755541129
F		0.045547744		1.817561314		-3.797899914
F		-0.360560302		1.931289089		-0.768247615
F		2.586415325		2.421973673		-0.323097612
F		1.261838191		0.040291412		-1.625664945
F		0.442142279		1.540284711		1.612958766
F		2.547095486		0.599037207		3.622904205
F		0.024275263		-1.199237119		2.815254358
