12
-187.38518821
Al		1.287428764		0.052767376		2.443845642
Al		1.276008078		1.189788433		-0.084539122
Al		-0.3230432		0.831366917		-2.320662079
F		-1.672414954		-0.37496476		-2.214264234
F		2.065340591		-0.349892061		0.755313405
F		0.043193854		1.815752549		-3.797987834
F		-0.361441413		1.930528077		-0.768175585
F		2.585562942		2.422572852		-0.32469721
F		1.261285639		0.039837511		-1.625648943
F		0.442611867		1.540796929		1.61278707
F		2.548950927		0.60119635		3.622056736
F		0.026444157		-1.198413604		2.816389275
