12
-187.38518821
Al		1.288186138		0.053370796		2.443847127
Al		1.275885564		1.189874554		-0.084769036
Al		-0.323666255		0.830669078		-2.320411501
F		-1.672708504		-0.375764752		-2.213557143
F		2.065682654		-0.34954092		0.755215809
F		0.042185044		1.814977364		-3.798025514
F		-0.361819032		1.930201929		-0.768144715
F		2.585197635		2.422829643		-0.325382752
F		1.261048831		0.039642982		-1.625642085
F		0.442813119		1.541016451		1.612713486
F		2.549746116		0.602121697		3.621693535
F		0.027373683		-1.198060669		2.816875668
