12
-187.38518821
Al		1.283389436		0.049549136		2.443837722
Al		1.276661486		1.189329121		-0.083312914
Al		-0.31972024		0.835088725		-2.321998495
F		-1.670849354		-0.370698136		-2.218035386
F		2.063516255		-0.351764813		0.755833917
F		0.048574174		1.819886869		-3.797786874
F		-0.359427445		1.932267533		-0.768340225
F		2.587511246		2.4212033		-0.321040986
F		1.262548615		0.040874999		-1.625685519
F		0.441538523		1.539626145		1.613179518
F		2.544709919		0.596261166		3.623993808
F		0.021486685		-1.200295924		2.813795179
