12
-187.38518821
Al		1.290963176		0.055583336		2.443852572
Al		1.275436346		1.190190331		-0.085612054
Al		-0.32595079		0.828110335		-2.319492715
F		-1.673784854		-0.378698056		-2.210964476
F		2.066936885		-0.348253403		0.754857957
F		0.038486074		1.812135019		-3.798163674
F		-0.363203635		1.929006053		-0.768031525
F		2.583858176		2.42377121		-0.327896406
F		1.260180535		0.038929709		-1.625616939
F		0.443551043		1.541821365		1.612443678
F		2.552661809		0.605514636		3.620361798
F		0.030781945		-1.196766574		2.818659109
