12
-187.38518821
Al		1.291468092		0.055985616		2.443853562
Al		1.27535467		1.190247745		-0.08576533
Al		-0.32636616		0.827645109		-2.319325663
F		-1.673980554		-0.379231384		-2.210493082
F		2.067164927		-0.348019309		0.754792893
F		0.037813534		1.811618229		-3.798188794
F		-0.363455381		1.928788621		-0.768010945
F		2.583614638		2.423942404		-0.328353434
F		1.260022663		0.038800023		-1.625612367
F		0.443685211		1.541967713		1.612394622
F		2.553191935		0.606131534		3.620119664
F		0.031401629		-1.196531284		2.818983371
