12
-187.38518821
Al		1.292730382		0.056991316		2.443856037
Al		1.27515048		1.19039128		-0.08614852
Al		-0.327404585		0.826482044		-2.318908033
F		-1.674469804		-0.380564704		-2.209314597
F		2.067735032		-0.347434074		0.754630233
F		0.036132184		1.810326254		-3.798251594
F		-0.364084746		1.928245041		-0.767959495
F		2.583005793		2.424370389		-0.329496004
F		1.259627983		0.038475808		-1.625600937
F		0.444020631		1.542333583		1.612271982
F		2.55451725		0.607673779		3.619514329
F		0.032950839		-1.195943059		2.819794026
