12
-187.38518821
Al		1.293235298		0.057393596		2.443857027
Al		1.275068804		1.190448694		-0.086301796
Al		-0.327819955		0.826016818		-2.318740981
F		-1.674665504		-0.381098032		-2.208843203
F		2.067963074		-0.34719998		0.754565169
F		0.035459644		1.809809464		-3.798276714
F		-0.364336492		1.928027609		-0.767938915
F		2.582762255		2.424541583		-0.329953032
F		1.259470111		0.038346122		-1.625596365
F		0.444154799		1.542479931		1.612222926
F		2.555047376		0.608290677		3.619272195
F		0.033570523		-1.195707769		2.820118288
