12
-187.38518821
Al		1.29424513		0.058198156		2.443859007
Al		1.274905452		1.190563522		-0.086608348
Al		-0.328650695		0.825086366		-2.318406877
F		-1.675056904		-0.382164688		-2.207900415
F		2.068419158		-0.346731792		0.754435041
F		0.034114564		1.808775884		-3.798326954
F		-0.364839984		1.927592745		-0.767897755
F		2.582275179		2.424883971		-0.330867088
F		1.259154367		0.03808675		-1.625587221
F		0.444423135		1.542772627		1.612124814
F		2.556107628		0.609524473		3.618787927
F		0.034809891		-1.195237189		2.820766812
