12
-187.38518821
Al		1.294497588		0.058399296		2.443859502
Al		1.274864614		1.190592229		-0.086684986
Al		-0.32885838		0.824853753		-2.318323351
F		-1.675154754		-0.382431352		-2.207664718
F		2.068533179		-0.346614745		0.754402509
F		0.033778294		1.808517489		-3.798339514
F		-0.364965857		1.927484029		-0.767887465
F		2.58215341		2.424969568		-0.331095602
F		1.259075431		0.038021907		-1.625584935
F		0.444490219		1.542845801		1.612100286
F		2.556372691		0.609832922		3.61866686
F		0.035119733		-1.195119544		2.820928943
