12
-187.38518821
Al		1.294750046		0.058600436		2.443859997
Al		1.274823776		1.190620936		-0.086761624
Al		-0.329066065		0.82462114		-2.318239825
F		-1.675252604		-0.382698016		-2.207429021
F		2.0686472		-0.346497698		0.754369977
F		0.033442024		1.808259094		-3.798352074
F		-0.36509173		1.927375313		-0.767877175
F		2.582031641		2.425055165		-0.331324116
F		1.258996495		0.037957064		-1.625582649
F		0.444557303		1.542918975		1.612075758
F		2.556637754		0.610141371		3.618545793
F		0.035429575		-1.195001899		2.821091074
