12
-187.38518821
Al		1.295002504		0.058801576		2.443860492
Al		1.274782938		1.190649643		-0.086838262
Al		-0.32927375		0.824388527		-2.318156299
F		-1.675350454		-0.38296468		-2.207193324
F		2.068761221		-0.346380651		0.754337445
F		0.033105754		1.808000699		-3.798364634
F		-0.365217603		1.927266597		-0.767866885
F		2.581909872		2.425140762		-0.33155263
F		1.258917559		0.037892221		-1.625580363
F		0.444624387		1.542992149		1.61205123
F		2.556902817		0.61044982		3.618424726
F		0.035739417		-1.194884254		2.821253205
