12
-187.38518821
Al		1.283894352		0.049951416		2.443838712
Al		1.27657981		1.189386535		-0.08346619
Al		-0.32013561		0.834623499		-2.321831443
F		-1.671045054		-0.371231464		-2.217563992
F		2.063744297		-0.351530719		0.755768853
F		0.047901634		1.819370079		-3.797811994
F		-0.359679191		1.932050101		-0.768319645
F		2.587267708		2.421374494		-0.321498014
F		1.262390743		0.040745313		-1.625680947
F		0.441672691		1.539772493		1.613130462
F		2.545240045		0.596878064		3.623751674
F		0.022106369		-1.200060634		2.814119441
