12
-187.38518821
Al		1.29550742		0.059203856		2.443861482
Al		1.274701262		1.190707057		-0.086991538
Al		-0.32968912		0.823923301		-2.317989247
F		-1.675546154		-0.383498008		-2.20672193
F		2.068989263		-0.346146557		0.754272381
F		0.032433214		1.807483909		-3.798389754
F		-0.365469349		1.927049165		-0.767846305
F		2.581666334		2.425311956		-0.332009658
F		1.258759687		0.037762535		-1.625575791
F		0.444758555		1.543138497		1.612002174
F		2.557432943		0.611066718		3.618182592
F		0.036359101		-1.194648964		2.821577467
