12
-187.38518821
Al		1.295759878		0.059404996		2.443861977
Al		1.274660424		1.190735764		-0.087068176
Al		-0.329896805		0.823690688		-2.317905721
F		-1.675644004		-0.383764672		-2.206486233
F		2.069103284		-0.34602951		0.754239849
F		0.032096944		1.807225514		-3.798402314
F		-0.365595222		1.926940449		-0.767836015
F		2.581544565		2.425397553		-0.332238172
F		1.258680751		0.037697692		-1.625573505
F		0.444825639		1.543211671		1.611977646
F		2.557698006		0.611375167		3.618061525
F		0.036668943		-1.194531319		2.821739598
