12
-187.38518821
Al		1.296517252		0.060008416		2.443863462
Al		1.27453791		1.190821885		-0.08729809
Al		-0.33051986		0.822992849		-2.317655143
F		-1.675937554		-0.384564664		-2.205779142
F		2.069445347		-0.345678369		0.754142253
F		0.031088134		1.806450329		-3.798439994
F		-0.365972841		1.926614301		-0.767805145
F		2.581179258		2.425654344		-0.332923714
F		1.258443943		0.037503163		-1.625566647
F		0.445026891		1.543431193		1.611904062
F		2.558493195		0.612300514		3.617698324
F		0.037598469		-1.194178384		2.822225991
