12
-187.38518821
Al		1.28414681		0.050152556		2.443839207
Al		1.276538972		1.189415242		-0.083542828
Al		-0.320343295		0.834390886		-2.321747917
F		-1.671142904		-0.371498128		-2.217328295
F		2.063858318		-0.351413672		0.755736321
F		0.047565364		1.819111684		-3.797824554
F		-0.359805064		1.931941385		-0.768309355
F		2.587145939		2.421460091		-0.321726528
F		1.262311807		0.04068047		-1.625678661
F		0.441739775		1.539845667		1.613105934
F		2.545505108		0.597186513		3.623630607
F		0.022416211		-1.199942989		2.814281572
