12
-187.38518821
Al		1.298032		0.061215256		2.443866432
Al		1.274292882		1.190994127		-0.087757918
Al		-0.33176597		0.821597171		-2.317153987
F		-1.676524654		-0.386164648		-2.20436496
F		2.070129473		-0.344976087		0.753947061
F		0.029070514		1.804899959		-3.798515354
F		-0.366728079		1.925962005		-0.767743405
F		2.580448644		2.426167926		-0.334294798
F		1.257970327		0.037114105		-1.625552931
F		0.445429395		1.543870237		1.611756894
F		2.560083573		0.614151208		3.616971922
F		0.039457521		-1.193472514		2.823198777
