12
-187.38518821
Al		1.301061496		0.063628936		2.443872372
Al		1.273802826		1.191338611		-0.088677574
Al		-0.33425819		0.818805815		-2.316151675
F		-1.677698854		-0.389364616		-2.201536596
F		2.071497725		-0.343571523		0.753556677
F		0.025035274		1.801799219		-3.798666074
F		-0.368238555		1.924657413		-0.767619925
F		2.578987416		2.42719509		-0.337036966
F		1.257023095		0.036335989		-1.625525499
F		0.446234403		1.544748325		1.611462558
F		2.563264329		0.617852596		3.615519118
F		0.043175625		-1.192060774		2.825144349
