12
-187.38518821
Al		1.301313954		0.063830076		2.443872867
Al		1.273761988		1.191367318		-0.088754212
Al		-0.334465875		0.818573202		-2.316068149
F		-1.677796704		-0.38963128		-2.201300899
F		2.071611746		-0.343454476		0.753524145
F		0.024699004		1.801540824		-3.798678634
F		-0.368364428		1.924548697		-0.767609635
F		2.578865647		2.427280687		-0.33726548
F		1.256944159		0.036271146		-1.625523213
F		0.446301487		1.544821499		1.61143803
F		2.563529392		0.618161045		3.615398051
F		0.043485467		-1.191943129		2.82530648
