12
-187.38518821
Al		1.301566412		0.064031216		2.443873362
Al		1.27372115		1.191396025		-0.08883085
Al		-0.33467356		0.818340589		-2.315984623
F		-1.677894554		-0.389897944		-2.201065202
F		2.071725767		-0.343337429		0.753491613
F		0.024362734		1.801282429		-3.798691194
F		-0.368490301		1.924439981		-0.767599345
F		2.578743878		2.427366284		-0.337493994
F		1.256865223		0.036206303		-1.625520927
F		0.446368571		1.544894673		1.611413502
F		2.563794455		0.618469494		3.615276984
F		0.043795309		-1.191825484		2.825468611
