12
-187.38518821
Al		1.284651726		0.050554836		2.443840197
Al		1.276457296		1.189472656		-0.083696104
Al		-0.320758665		0.83392566		-2.321580865
F		-1.671338604		-0.372031456		-2.216856901
F		2.06408636		-0.351179578		0.755671257
F		0.046892824		1.818594894		-3.797849674
F		-0.36005681		1.931723953		-0.768288775
F		2.586902401		2.421631285		-0.322183556
F		1.262153935		0.040550784		-1.625674089
F		0.441873943		1.539992015		1.613056878
F		2.546035234		0.597803411		3.623388473
F		0.023035895		-1.199707699		2.814605834
