12
-187.38518821
Al		1.302828702		0.065036916		2.443875837
Al		1.27351696		1.19153956		-0.08921404
Al		-0.335711985		0.817177524		-2.315566993
F		-1.678383804		-0.391231264		-2.199886717
F		2.072295872		-0.342752194		0.753328953
F		0.022681384		1.799990454		-3.798753994
F		-0.369119666		1.923896401		-0.767547895
F		2.578135033		2.427794269		-0.338636564
F		1.256470543		0.035882088		-1.625509497
F		0.446703991		1.545260543		1.611290862
F		2.56511977		0.620011739		3.614671649
F		0.045344519		-1.191237259		2.826279266
