12
-187.38518821
Al		1.303333618		0.065439196		2.443876827
Al		1.273435284		1.191596974		-0.089367316
Al		-0.336127355		0.816712298		-2.315399941
F		-1.678579504		-0.391764592		-2.199415323
F		2.072523914		-0.3425181		0.753263889
F		0.022008844		1.799473664		-3.798779114
F		-0.369371412		1.923678969		-0.767527315
F		2.577891495		2.427965463		-0.339093592
F		1.256312671		0.035752402		-1.625504925
F		0.446838159		1.545406891		1.611241806
F		2.565649896		0.620628637		3.614429515
F		0.045964203		-1.191001969		2.826603528
