12
-187.38518821
Al		1.306615572		0.068054016		2.443883262
Al		1.27290439		1.191970165		-0.09036361
Al		-0.33882726		0.813688329		-2.314314103
F		-1.679851554		-0.395231224		-2.196351262
F		2.074006187		-0.340996489		0.752840973
F		0.017637334		1.796114529		-3.798942394
F		-0.371007761		1.922265661		-0.767393545
F		2.576308498		2.429078224		-0.342064274
F		1.255286503		0.034909443		-1.625475207
F		0.447710251		1.546358153		1.610922942
F		2.569095715		0.624638474		3.612855644
F		0.049992149		-1.189472584		2.828711231
