12
-187.38518821
Al		1.307372946		0.068657436		2.443884747
Al		1.272781876		1.192056286		-0.090593524
Al		-0.339450315		0.81299049		-2.314063525
F		-1.680145104		-0.396031216		-2.195644171
F		2.07434825		-0.340645348		0.752743377
F		0.016628524		1.795339344		-3.798980074
F		-0.37138538		1.921939513		-0.767362675
F		2.575943191		2.429335015		-0.342749816
F		1.255049695		0.034714914		-1.625468349
F		0.447911503		1.546577675		1.610849358
F		2.569890904		0.625563821		3.612492443
F		0.050921675		-1.189119649		2.829197624
