12
-187.38518821
Al		1.307625404		0.068858576		2.443885242
Al		1.272741038		1.192084993		-0.090670162
Al		-0.339658		0.812757877		-2.313979999
F		-1.680242954		-0.39629788		-2.195408474
F		2.074462271		-0.340528301		0.752710845
F		0.016292254		1.795080949		-3.798992634
F		-0.371511253		1.921830797		-0.767352385
F		2.575821422		2.429420612		-0.34297833
F		1.254970759		0.034650071		-1.625466063
F		0.447978587		1.546650849		1.61082483
F		2.570155967		0.62587227		3.612371376
F		0.051231517		-1.189002004		2.829359755
