12
-187.38518821
Al		1.280107482		0.046934316		2.443831287
Al		1.27719238		1.18895593		-0.08231662
Al		-0.317020335		0.838112694		-2.323084333
F		-1.669577304		-0.367231504		-2.221099447
F		2.062033982		-0.353286424		0.756256833
F		0.052945684		1.823246004		-3.797623594
F		-0.357791096		1.933680841		-0.768473995
F		2.589094243		2.420090539		-0.318070304
F		1.263574783		0.041717958		-1.625715237
F		0.440666431		1.538674883		1.613498382
F		2.5412641		0.592251329		3.625567679
F		0.017458739		-1.201825309		2.811687476
