12
-187.38518821
Al		1.279602566		0.046532036		2.443830297
Al		1.277274056		1.188898516		-0.082163344
Al		-0.316604965		0.83857792		-2.323251385
F		-1.669381604		-0.366698176		-2.221570841
F		2.06180594		-0.353520518		0.756321897
F		0.053618224		1.823762794		-3.797598474
F		-0.35753935		1.933898273		-0.768494575
F		2.589337781		2.419919345		-0.317613276
F		1.263732655		0.041847644		-1.625719809
F		0.440532263		1.538528535		1.613547438
F		2.540733974		0.591634431		3.625809813
F		0.016839055		-1.202060599		2.811363214
