12
-187.38518821
Al		1.27909765		0.046129756		2.443829307
Al		1.277355732		1.188841102		-0.082010068
Al		-0.316189595		0.839043146		-2.323418437
F		-1.669185904		-0.366164848		-2.222042235
F		2.061577898		-0.353754612		0.756386961
F		0.054290764		1.824279584		-3.797573354
F		-0.357287604		1.934115705		-0.768515155
F		2.589581319		2.419748151		-0.317156248
F		1.263890527		0.04197733		-1.625724381
F		0.440398095		1.538382187		1.613596494
F		2.540203848		0.591017533		3.626051947
F		0.016219371		-1.202295889		2.811038952
