12
-187.38518821
Al		1.278592734		0.045727476		2.443828317
Al		1.277437408		1.188783688		-0.081856792
Al		-0.315774225		0.839508372		-2.323585489
F		-1.668990204		-0.36563152		-2.222513629
F		2.061349856		-0.353988706		0.756452025
F		0.054963304		1.824796374		-3.797548234
F		-0.357035858		1.934333137		-0.768535735
F		2.589824857		2.419576957		-0.31669922
F		1.264048399		0.042107016		-1.625728953
F		0.440263927		1.538235839		1.61364555
F		2.539673722		0.590400635		3.626294081
F		0.015599687		-1.202531179		2.81071469
