12
-187.38518821
Al		1.277077986		0.044520636		2.443825347
Al		1.277682436		1.188611446		-0.081396964
Al		-0.314528115		0.84090405		-2.324086645
F		-1.668403104		-0.364031536		-2.223927811
F		2.06066573		-0.354690988		0.756647217
F		0.056980924		1.826346744		-3.797472874
F		-0.35628062		1.934985433		-0.768597475
F		2.590555471		2.419063375		-0.315328136
F		1.264522015		0.042496074		-1.625742669
F		0.439861423		1.537796795		1.613792718
F		2.538083344		0.588549941		3.627020483
F		0.013740635		-1.203237049		2.809741904
