12
-187.38518821
Al		1.27657307		0.044118356		2.443824357
Al		1.277764112		1.188554032		-0.081243688
Al		-0.314112745		0.841369276		-2.324253697
F		-1.668207404		-0.363498208		-2.224399205
F		2.060437688		-0.354925082		0.756712281
F		0.057653464		1.826863534		-3.797447754
F		-0.356028874		1.935202865		-0.768618055
F		2.590799009		2.418892181		-0.314871108
F		1.264679887		0.04262576		-1.625747241
F		0.439727255		1.537650447		1.613841774
F		2.537553218		0.587933043		3.627262617
F		0.013120951		-1.203472339		2.809417642
