12
-187.38518821
Al		1.275563238		0.043313796		2.443822377
Al		1.277927464		1.188439204		-0.080937136
Al		-0.313282005		0.842299728		-2.324587801
F		-1.667816004		-0.362431552		-2.225341993
F		2.059981604		-0.35539327		0.756842409
F		0.058998544		1.827897114		-3.797397514
F		-0.355525382		1.935637729		-0.768659215
F		2.591286085		2.418549793		-0.313957052
F		1.264995631		0.042885132		-1.625756385
F		0.439458919		1.537357751		1.613939886
F		2.536492966		0.586699247		3.627746885
F		0.011881583		-1.203942919		2.808769118
