12
-187.38518821
Al		1.281874688		0.048342296		2.443834752
Al		1.276906514		1.189156879		-0.082853086
Al		-0.31847413		0.836484403		-2.322499651
F		-1.670262254		-0.369098152		-2.219449568
F		2.062832129		-0.352467095		0.756029109
F		0.050591794		1.821437239		-3.797711514
F		-0.358672207		1.932919829		-0.768401965
F		2.58824186		2.420689718		-0.319669902
F		1.263022231		0.041264057		-1.625699235
F		0.441136019		1.539187101		1.613326686
F		2.543119541		0.594410472		3.62472021
F		0.019627633		-1.201001794		2.812822393
