12
-187.38518821
Al		1.275058322		0.042911516		2.443821387
Al		1.27800914		1.18838179		-0.08078386
Al		-0.312866635		0.842764954		-2.324754853
F		-1.667620304		-0.361898224		-2.225813387
F		2.059753562		-0.355627364		0.756907473
F		0.059671084		1.828413904		-3.797372394
F		-0.355273636		1.935855161		-0.768679795
F		2.591529623		2.418378599		-0.313500024
F		1.265153503		0.043014818		-1.625760957
F		0.439324751		1.537211403		1.613988942
F		2.53596284		0.586082349		3.627989019
F		0.011261899		-1.204178209		2.808444856
