12
-187.38518821
Al		1.27404849		0.042106956		2.443819407
Al		1.278172492		1.188266962		-0.080477308
Al		-0.312035895		0.843695406		-2.325088957
F		-1.667228904		-0.360831568		-2.226756175
F		2.059297478		-0.356095552		0.757037601
F		0.061016164		1.829447484		-3.797322154
F		-0.354770144		1.936290025		-0.768720955
F		2.592016699		2.418036211		-0.312585968
F		1.265469247		0.04327419		-1.625770101
F		0.439056415		1.536918707		1.614087054
F		2.534902588		0.584848553		3.628473287
F		0.010022531		-1.204648789		2.807796332
