12
-187.38518821
Al		1.28162223		0.048141156		2.443834257
Al		1.276947352		1.189128172		-0.082776448
Al		-0.318266445		0.836717016		-2.322583177
F		-1.670164404		-0.368831488		-2.219685265
F		2.062718108		-0.352584142		0.756061641
F		0.050928064		1.821695634		-3.797698954
F		-0.358546334		1.933028545		-0.768412255
F		2.588363629		2.420604121		-0.319441388
F		1.263101167		0.0413289		-1.625701521
F		0.441068935		1.539113927		1.613351214
F		2.542854478		0.594102023		3.624841277
F		0.019317791		-1.201119439		2.812660262
