12
-187.38518821
Al		1.272028826		0.040497836		2.443815447
Al		1.278499196		1.188037306		-0.079864204
Al		-0.310374415		0.84555631		-2.325757165
F		-1.666446104		-0.358698256		-2.228641751
F		2.05838531		-0.357031928		0.757297857
F		0.063706324		1.831514644		-3.797221674
F		-0.35376316		1.937159753		-0.768803275
F		2.592990851		2.417351435		-0.310757856
F		1.266100735		0.043792934		-1.625788389
F		0.438519743		1.536333315		1.614283278
F		2.532782084		0.582380961		3.629441823
F		0.007543795		-1.205589949		2.806499284
