12
-187.38518821
Al		1.271271452		0.039894416		2.443813962
Al		1.27862171		1.187951185		-0.07963429
Al		-0.30975136		0.846254149		-2.326007743
F		-1.666152554		-0.357898264		-2.229348842
F		2.058043247		-0.357383069		0.757395453
F		0.064715134		1.832289829		-3.797183994
F		-0.353385541		1.937485901		-0.768834145
F		2.593356158		2.417094644		-0.310072314
F		1.266337543		0.043987463		-1.625795247
F		0.438318491		1.536113793		1.614356862
F		2.531986895		0.581455614		3.629805024
F		0.006614269		-1.205942884		2.806012891
