12
-187.38518821
Al		1.270766536		0.039492136		2.443812972
Al		1.278703386		1.187893771		-0.079481014
Al		-0.30933599		0.846719375		-2.326174795
F		-1.665956854		-0.357364936		-2.229820236
F		2.057815205		-0.357617163		0.757460517
F		0.065387674		1.832806619		-3.797158874
F		-0.353133795		1.937703333		-0.768854725
F		2.593599696		2.41692345		-0.309615286
F		1.266495415		0.044117149		-1.625799819
F		0.438184323		1.535967445		1.614405918
F		2.531456769		0.580838716		3.630047158
F		0.005994585		-1.206178174		2.805688629
