12
-187.38518821
Al		1.27026162		0.039089856		2.443811982
Al		1.278785062		1.187836357		-0.079327738
Al		-0.30892062		0.847184601		-2.326341847
F		-1.665761154		-0.356831608		-2.23029163
F		2.057587163		-0.357851257		0.757525581
F		0.066060214		1.833323409		-3.797133754
F		-0.352882049		1.937920765		-0.768875305
F		2.593843234		2.416752256		-0.309158258
F		1.266653287		0.044246835		-1.625804391
F		0.438050155		1.535821097		1.614454974
F		2.530926643		0.580221818		3.630289292
F		0.005374901		-1.206413464		2.805364367
