12
-187.38518821
Al		1.268494414		0.037681876		2.443808517
Al		1.279070928		1.187635408		-0.078791272
Al		-0.307466825		0.848812892		-2.326926529
F		-1.665076204		-0.35496496		-2.231941509
F		2.056789016		-0.358670586		0.757753305
F		0.068414104		1.835132174		-3.797045834
F		-0.352000938		1.938681777		-0.768947335
F		2.594695617		2.416153077		-0.30755866
F		1.267205839		0.044700736		-1.625820393
F		0.437580567		1.535308879		1.61462667
F		2.529071202		0.578062675		3.631136761
F		0.003206007		-1.207236979		2.80422945
