12
-187.38518821
Al		1.268241956		0.037480736		2.443808022
Al		1.279111766		1.187606701		-0.078714634
Al		-0.30725914		0.849045505		-2.327010055
F		-1.664978354		-0.354698296		-2.232177206
F		2.056674995		-0.358787633		0.757785837
F		0.068750374		1.835390569		-3.797033274
F		-0.351875065		1.938790493		-0.768957625
F		2.594817386		2.41606748		-0.307330146
F		1.267284775		0.044765579		-1.625822679
F		0.437513483		1.535235705		1.614651198
F		2.528806139		0.577754226		3.631257828
F		0.002896165		-1.207354624		2.804067319
