12
-187.38518821
Al		1.267232124		0.036676176		2.443806042
Al		1.279275118		1.187491873		-0.078408082
Al		-0.3064284		0.849975957		-2.327344159
F		-1.664586954		-0.35363164		-2.233119994
F		2.056218911		-0.359255821		0.757915965
F		0.070095454		1.836424149		-3.796983034
F		-0.351371573		1.939225357		-0.768998785
F		2.595304462		2.415725092		-0.30641609
F		1.267600519		0.045024951		-1.625831823
F		0.437245147		1.534943009		1.61474931
F		2.527745887		0.57652043		3.631742096
F		0.001656797		-1.207825204		2.803418795
