12
-187.38518821
Al		1.266979666		0.036475036		2.443805547
Al		1.279315956		1.187463166		-0.078331444
Al		-0.306220715		0.85020857		-2.327427685
F		-1.664489104		-0.353364976		-2.233355691
F		2.05610489		-0.359372868		0.757948497
F		0.070431724		1.836682544		-3.796970474
F		-0.3512457		1.939334073		-0.769009075
F		2.595426231		2.415639495		-0.306187576
F		1.267679455		0.045089794		-1.625834109
F		0.437178063		1.534869835		1.614773838
F		2.527480824		0.576211981		3.631863163
F		0.001346955		-1.207942849		2.803256664
