12
-187.38518821
Al		1.266222292		0.035871616		2.443804062
Al		1.27943847		1.187377045		-0.07810153
Al		-0.30559766		0.850906409		-2.327678263
F		-1.664195554		-0.352564984		-2.234062782
F		2.055762827		-0.359724009		0.758046093
F		0.071440534		1.837457729		-3.796932794
F		-0.350868081		1.939660221		-0.769039945
F		2.595791538		2.415382704		-0.305502034
F		1.267916263		0.045284323		-1.625840967
F		0.436976811		1.534650313		1.614847422
F		2.526685635		0.575286634		3.632226364
F		0.000417429		-1.208295784		2.802770271
