12
-187.38518821
Al		1.265464918		0.035268196		2.443802577
Al		1.279560984		1.187290924		-0.077871616
Al		-0.304974605		0.851604248		-2.327928841
F		-1.663902004		-0.351764992		-2.234769873
F		2.055420764		-0.36007515		0.758143689
F		0.072449344		1.838232914		-3.796895114
F		-0.350490462		1.939986369		-0.769070815
F		2.596156845		2.415125913		-0.304816492
F		1.268153071		0.045478852		-1.625847825
F		0.436775559		1.534430791		1.614921006
F		2.525890446		0.574361287		3.632589565
F		-0.000512097		-1.208648719		2.802283878
