12
-187.38518821
Al		1.264960002		0.034865916		2.443801587
Al		1.27964266		1.18723351		-0.07771834
Al		-0.304559235		0.852069474		-2.328095893
F		-1.663706304		-0.351231664		-2.235241267
F		2.055192722		-0.360309244		0.758208753
F		0.073121884		1.838749704		-3.796869994
F		-0.350238716		1.940203801		-0.769091395
F		2.596400383		2.414954719		-0.304359464
F		1.268310943		0.045608538		-1.625852397
F		0.436641391		1.534284443		1.614970062
F		2.52536032		0.573744389		3.632831699
F		-0.001131781		-1.208884009		2.801959616
