12
-187.38518821
Al		1.263697712		0.033860216		2.443799112
Al		1.27984685		1.187089975		-0.07733515
Al		-0.30352081		0.853232539		-2.328513523
F		-1.663217054		-0.349898344		-2.236419752
F		2.054622617		-0.360894479		0.758371413
F		0.074803234		1.840041679		-3.796807194
F		-0.349609351		1.940747381		-0.769142845
F		2.597009228		2.414526734		-0.303216894
F		1.268705623		0.045932753		-1.625863827
F		0.436305971		1.533918573		1.615092702
F		2.524035005		0.572202144		3.633437034
F		-0.002680991		-1.209472234		2.801148961
