12
-187.38518821
Al		1.263192796		0.033457936		2.443798122
Al		1.279928526		1.187032561		-0.077181874
Al		-0.30310544		0.853697765		-2.328680575
F		-1.663021354		-0.349365016		-2.236891146
F		2.054394575		-0.361128573		0.758436477
F		0.075475774		1.840558469		-3.796782074
F		-0.349357605		1.940964813		-0.769163425
F		2.597252766		2.41435554		-0.302759866
F		1.268863495		0.046062439		-1.625868399
F		0.436171803		1.533772225		1.615141758
F		2.523504879		0.571585246		3.633679168
F		-0.003300675		-1.209707524		2.800824699
