12
-187.38518821
Al		1.280612398		0.047336596		2.443832277
Al		1.277110704		1.189013344		-0.082469896
Al		-0.317435705		0.837647468		-2.322917281
F		-1.669773004		-0.367764832		-2.220628053
F		2.062262024		-0.35305233		0.756191769
F		0.052273144		1.822729214		-3.797648714
F		-0.358042842		1.933463409		-0.768453415
F		2.588850705		2.420261733		-0.318527332
F		1.263416911		0.041588272		-1.625710665
F		0.440800599		1.538821231		1.613449326
F		2.541794226		0.592868227		3.625325545
F		0.018078423		-1.201590019		2.812011738
