12
-187.38518821
Al		1.26142559		0.032049956		2.443794657
Al		1.280214392		1.186831612		-0.076645408
Al		-0.301651645		0.855326056		-2.329265257
F		-1.662336404		-0.347498368		-2.238541025
F		2.053596428		-0.361947902		0.758664201
F		0.077829664		1.842367234		-3.796694154
F		-0.348476494		1.941725825		-0.769235455
F		2.598105149		2.413756361		-0.301160268
F		1.269416047		0.04651634		-1.625884401
F		0.435702215		1.533260007		1.615313454
F		2.521649438		0.569426103		3.634526637
F		-0.005469569		-1.210531039		2.799689782
