12
-187.38518821
Al		1.261173132		0.031848816		2.443794162
Al		1.28025523		1.186802905		-0.07656877
Al		-0.30144396		0.855558669		-2.329348783
F		-1.662238554		-0.347231704		-2.238776722
F		2.053482407		-0.362064949		0.758696733
F		0.078165934		1.842625629		-3.796681594
F		-0.348350621		1.941834541		-0.769245745
F		2.598226918		2.413670764		-0.300931754
F		1.269494983		0.046581183		-1.625886687
F		0.435635131		1.533186833		1.615337982
F		2.521384375		0.569117654		3.634647704
F		-0.005779411		-1.210648684		2.799527651
