12
-187.38518821
Al		1.2601633		0.031044256		2.443792182
Al		1.280418582		1.186688077		-0.076262218
Al		-0.30061322		0.856489121		-2.329682887
F		-1.661847154		-0.346165048		-2.23971951
F		2.053026323		-0.362533137		0.758826861
F		0.079511014		1.843659209		-3.796631354
F		-0.347847129		1.942269405		-0.769286905
F		2.598713994		2.413328376		-0.300017698
F		1.269810727		0.046840555		-1.625895831
F		0.435366795		1.532894137		1.615436094
F		2.520324123		0.567883858		3.635131972
F		-0.007018779		-1.211119264		2.798879127
