12
-187.38518821
Al		1.28035994		0.047135456		2.443831782
Al		1.277151542		1.188984637		-0.082393258
Al		-0.31722802		0.837880081		-2.323000807
F		-1.669675154		-0.367498168		-2.22086375
F		2.062148003		-0.353169377		0.756224301
F		0.052609414		1.822987609		-3.797636154
F		-0.357916969		1.933572125		-0.768463705
F		2.588972474		2.420176136		-0.318298818
F		1.263495847		0.041653115		-1.625712951
F		0.440733515		1.538748057		1.613473854
F		2.541529163		0.592559778		3.625446612
F		0.017768581		-1.201707664		2.811849607
