12
-187.38518821
Al		1.259405926		0.030440836		2.443790697
Al		1.280541096		1.186601956		-0.076032304
Al		-0.299990165		0.85718696		-2.329933465
F		-1.661553604		-0.345365056		-2.240426601
F		2.05268426		-0.362884278		0.758924457
F		0.080519824		1.844434394		-3.796593674
F		-0.34746951		1.942595553		-0.769317775
F		2.599079301		2.413071585		-0.299332156
F		1.270047535		0.047035084		-1.625902689
F		0.435165543		1.532674615		1.615509678
F		2.519528934		0.566958511		3.635495173
F		-0.007948305		-1.211472199		2.798392734
