12
-187.38518821
Al		1.25890101		0.030038556		2.443789707
Al		1.280622772		1.186544542		-0.075879028
Al		-0.299574795		0.857652186		-2.330100517
F		-1.661357904		-0.344831728		-2.240897995
F		2.052456218		-0.363118372		0.758989521
F		0.081192364		1.844951184		-3.796568554
F		-0.347217764		1.942812985		-0.769338355
F		2.599322839		2.412900391		-0.298875128
F		1.270205407		0.04716477		-1.625907261
F		0.435031375		1.532528267		1.615558734
F		2.518998808		0.566341613		3.635737307
F		-0.008567989		-1.211707489		2.798068472
