12
-187.38518821
Al		1.258143636		0.029435136		2.443788222
Al		1.280745286		1.186458421		-0.075649114
Al		-0.29895174		0.858350025		-2.330351095
F		-1.661064354		-0.344031736		-2.241605086
F		2.052114155		-0.363469513		0.759087117
F		0.082201174		1.845726369		-3.796530874
F		-0.346840145		1.943139133		-0.769369225
F		2.599688146		2.4126436		-0.298189586
F		1.270442215		0.047359299		-1.625914119
F		0.434830123		1.532308745		1.615632318
F		2.518203619		0.565416266		3.636100508
F		-0.009497515		-1.212060424		2.797582079
