12
-187.38518821
Al		1.25763872		0.029032856		2.443787232
Al		1.280826962		1.186401007		-0.075495838
Al		-0.29853637		0.858815251		-2.330518147
F		-1.660868654		-0.343498408		-2.24207648
F		2.051886113		-0.363703607		0.759152181
F		0.082873714		1.846243159		-3.796505754
F		-0.346588399		1.943356565		-0.769389805
F		2.599931684		2.412472406		-0.297732558
F		1.270600087		0.047488985		-1.625918691
F		0.434695955		1.532162397		1.615681374
F		2.517673493		0.564799368		3.636342642
F		-0.010117199		-1.212295714		2.797257817
