12
Properties=species:S:1:pos:R:3:forces:R:3 energy=-186.36708507 pbc="F F F"
Al    -0.329262657    1.870667096    2.056454021    -0.489121    0.663501    -0.115014
Al    2.324388596    2.783365525    1.875154075    -0.541397    0.336836    -0.092676
Al    1.462588158    2.5710805810000004    -0.691184153    -0.447042    0.301843    -0.231171
F    0.719962852    3.347791019    2.725403332    0.187334    -0.086025    -0.077224
F    -1.793303447    2.879335043    1.7608305949999998    0.420854    -0.302893    0.002167
F    -0.7637779600000001    0.238144282    2.83023126    -0.016008    -0.260582    0.088231
F    1.6151518690000002    1.035380085    2.108094234    0.057915    -0.19805    0.00285
F    2.9961648419999998    1.837428372    0.131589546    0.317422    -0.194152    0.096563
F    1.381493214    2.7891844519999998    -2.496525304    0.062394    -0.065802    0.194241
F    1.698402368    4.056067087000001    0.514076765    0.104791    -0.211437    0.042135
F    3.879605466    3.3240831109999998    2.658868168    0.263497    0.040219    0.10611
F    -0.008144899999999997    1.7943598680000001    0.11059750500000001    0.079361    -0.023458    -0.016211
