12
Properties=species:S:1:pos:R:3:forces:R:3 energy=-184.97027078 pbc="F F F"
Al    0.020719372    -2.318089011    -1.5160050610000002    -0.324586    2.454517    2.749087
Al    2.1447917299999997    -0.704251656    -0.771354624    -0.73888    -0.742396    -1.092064
Al    0.013153794000000052    0.436954703    -2.114912883    0.79889    -1.373652    -0.593247
F    3.649285888    0.22720758399999996    0.054099177    0.449923    0.083374    0.698503
F    -0.269029974    -3.885060493    -2.685103436    0.10456    -2.327668    -2.238101
F    1.907970438    -1.877882476    -2.222728789    -0.009981    0.310298    0.127554
F    1.8651928949999999    0.702199939    -2.37344422    0.067787    0.107439    -0.030738
F    -1.9363330220000001    1.117460931    -1.799858311    -0.792099    0.594002    0.289603
F    -1.207398086    -1.082856852    -0.953832169    0.151043    0.2544    0.004009
F    -0.062457974000000006    -1.073529109    -3.184015581    0.118431    0.25109    0.182581
F    0.619807196    0.34764499800000004    -0.271902202    0.099255    0.110996    -0.078122
F    1.115473334    -2.12442141    0.08593182699999999    0.075657    0.277599    -0.019066
