      12
SCF Done            -186.52078949
Al           -0.355161838         0.992280560        -1.818690936
Al           -0.449400914         1.081366453         1.281530036
Al           -3.023427119         0.474771089        -1.859122142
F            -3.533705861         0.323992408        -3.599903908
F            -1.399217357        -0.581946301        -1.798940245
F            -1.916661887         2.055683203        -1.935177583
F            -2.049707925         0.787204739         0.454362024
F             0.617271327         1.173443043        -0.292930711
F            -0.374759975         2.734192197         2.030625547
F             0.435596315        -0.330511058         2.009707045
F            -4.275007692         0.203271470        -0.580648365
F             0.734904027         1.302459937        -3.234974429
