12
Properties=species:S:1:pos:R:3:forces:R:3 energy=-186.55761313 pbc="F F F"
Al    -0.336416838    1.15866976    -1.593076336    0.139885    -0.234843    0.022425
Al    -0.427070314    1.323353853    1.506241836    0.014179    0.079195    0.002995
Al    -3.0337053189999996    0.7742838890000001    -1.6189829420000001    -0.158367    0.118781    0.015823
F    -3.547391061    0.5553178080000001    -3.3952421079999997    -0.004293    -0.016526    -0.039125
F    -1.4506821570000001    -0.396233701    -1.6041994450000001    0.143498    -0.000826    -0.000171
F    -1.8592602870000001    2.2649422030000004    -1.7394739830000001    -0.164274    0.110293    -0.012425
F    -2.0363523249999997    0.994582539    0.6514068239999999    -0.050032    -0.010387    -0.018775
F    0.629900727    1.365458043    -0.10977611100000001    0.028577    0.013264    0.00193
F    -0.185314375    2.961828797    2.126713547    -0.003192    0.027272    0.01349
F    0.295620315    -0.170632858    2.2859424450000003    0.035324    -0.087804    0.043115
F    -4.306675092    0.59311687    -0.37499296499999996    -0.0169    -0.018756    0.013866
F    0.7868382270000001    1.239284537    -3.047765029    0.035595    0.020336    -0.043148
