      12
SCF Done            -168.62319500
Al           -0.342952038         0.921443160        -1.820123136
Al           -0.450670981         1.115712091         1.278341801
Al           -3.036946503         0.522442878        -1.854891609
F            -3.541527855         0.327527336        -3.594376561
F            -1.448886958        -0.600051304        -1.786385338
F            -1.869056693         2.058162589        -1.945610761
F            -2.050779777         0.806486655         0.455840109
F             0.616402016         1.183093697        -0.297855175
F            -0.215839781         2.794000804         1.922599371
F             0.278739608        -0.334974071         2.110020558
F            -4.314108967         0.386511726        -0.576683313
F             0.786843819         1.033709703        -3.234966444
