12
Properties=species:S:1:pos:R:3:forces:R:3 energy=-185.70528831 pbc="F F F"
Al    0.319378872    -2.170723011    -1.788599761    -0.09352    -0.300409    -0.078112
Al    2.0648263300000003    -0.46037965599999997    -0.7841729239999999    -0.162873    -0.218184    -0.100544
Al    -0.33306580599999996    0.397937303    -1.790732183    -0.018402    -0.252757    -0.037905
F    3.7201648880000002    -0.155803016    0.015082277000000005    -0.243092    -0.053334    -0.118375
F    -0.076980674    -3.684357593    -2.147634836    -0.114247    -0.442999    -0.104269
F    1.771369938    -1.992917176    -2.247607789    0.440287    0.361458    0.116074
F    1.606489495    0.706943039    -2.36209222    -0.109607    -0.160517    0.286014
F    -1.5648923220000002    1.7504464309999999    -2.201730511    0.128564    -0.14674    0.042246
F    -0.9402815859999999    -1.5625434519999999    -1.134209069    -0.235298    0.466825    0.135349
F    -0.06378667399999999    -1.341488609    -3.033754281    -0.092637    0.502805    -0.173827
F    0.476100896    0.421855698    0.08769609800000001    0.157715    -0.093098    -0.293329
F    0.906289934    -2.21109301    -0.372802073    0.343109    0.33695    0.32668
