12
-187.38518821
Al		1.282621607		0.048957909		2.443841764
Al		1.276606234		1.189450326		-0.082989031
Al		-0.31910764		0.835798757		-2.322243547
F		-1.67031667		-0.370177042		-2.218868886
F		2.062824446		-0.352124595		0.755826462
F		0.049590414		1.820653388		-3.797753122
F		-0.359045737		1.932917449		-0.76854018
F		2.588050741		2.420743356		-0.320447522
F		1.262566051		0.040996842		-1.62540949
F		0.441471733		1.539666346		1.613471954
F		2.54392216		0.595327153		3.624353081
F		0.020796293		-1.200927757		2.813182377
