12
-187.38518821
Al		1.282527512		0.049067646		2.443891507
Al		1.27500634		1.19131626		-0.08214331
Al		-0.319201735		0.835908494		-2.322193813
F		-1.668164464		-0.372687124		-2.220006567
F		2.059676732		-0.352202364		0.754881003
F		0.049657284		1.820575394		-3.797788474
F		-0.359008936		1.935831361		-0.770061945
F		2.589618433		2.418914979		-0.321276224
F		1.260591703		0.040342668		-1.622863507
F		0.442681891		1.542003853		1.615441622
F		2.54398903		0.595249159		3.624317729
F		0.022948499		-1.203437839		2.812044696
