12
-187.38518821
Al		1.281586562		0.050165016		2.444388937
Al		1.2590074		1.2099756		-0.0736861
Al		-0.320142685		0.837005864		-2.321696473
F		-1.646642404		-0.397787944		-2.231383377
F		2.028199592		-0.352980054		0.745426413
F		0.050325984		1.819795454		-3.798141994
F		-0.358640926		1.964970481		-0.785279595
F		2.605295353		2.400631209		-0.329563244
F		1.240848223		0.033800928		-1.597403677
F		0.454783471		1.565378923		1.635138302
F		2.54465773		0.594469219		3.623964209
F		0.044470559		-1.228538659		2.800667886
