12
-187.38518821
Al		1.282506602		0.049092032		2.443902561
Al		1.274650808		1.191730912		-0.081955372
Al		-0.319222645		0.83593288		-2.322182761
F		-1.667686196		-0.37324492		-2.220259385
F		2.05897724		-0.352219646		0.754670901
F		0.049672144		1.820558062		-3.79779633
F		-0.359000758		1.936478897		-0.770400115
F		2.589966809		2.418508673		-0.32146038
F		1.260152959		0.040197296		-1.622297733
F		0.442950815		1.542523299		1.615879326
F		2.54400389		0.595231827		3.624309873
F		0.023426767		-1.203995635		2.811791878
