12
-187.38518821
Al		1.282496147		0.049104225		2.443908088
Al		1.274473042		1.191938238		-0.081861403
Al		-0.3192331		0.835945073		-2.322177235
F		-1.667447062		-0.373523818		-2.220385794
F		2.058627494		-0.352228287		0.75456585
F		0.049679574		1.820549396		-3.797800258
F		-0.358996669		1.936802665		-0.7705692
F		2.590140997		2.41830552		-0.321552458
F		1.259933587		0.04012461		-1.622014846
F		0.443085277		1.542783022		1.616098178
F		2.54401132		0.595223161		3.624305945
F		0.023665901		-1.204274533		2.811665469
