12
-187.38518821
Al		1.282412507		0.049201769		2.443952304
Al		1.273050914		1.193596846		-0.081109651
Al		-0.31931674		0.836042617		-2.322133027
F		-1.66553399		-0.375755002		-2.221397066
F		2.055829526		-0.352297415		0.753725442
F		0.049739014		1.820480068		-3.797831682
F		-0.358963957		1.939392809		-0.77192188
F		2.591534501		2.416680296		-0.322289082
F		1.258178611		0.039543122		-1.61975175
F		0.444160973		1.544860806		1.617848994
F		2.54407076		0.595153833		3.624274521
F		0.025578973		-1.206505717		2.810654197
