12
-187.38518821
Al		1.282287047		0.049348085		2.444018628
Al		1.270917722		1.196084758		-0.079982023
Al		-0.3194422		0.836188933		-2.322066715
F		-1.662664382		-0.379101778		-2.222913974
F		2.051632574		-0.352401107		0.75246483
F		0.049828174		1.820376076		-3.797878818
F		-0.358914889		1.943278025		-0.7739509
F		2.593624757		2.41424246		-0.323394018
F		1.255546147		0.03867089		-1.616357106
F		0.445774517		1.547977482		1.620475218
F		2.54415992		0.595049841		3.624227385
F		0.028448581		-1.209852493		2.809137289
