12
-187.38518821
Al		1.282203407		0.049445629		2.444062844
Al		1.269495594		1.197743366		-0.079230271
Al		-0.31952584		0.836286477		-2.322022507
F		-1.66075131		-0.381332962		-2.223925246
F		2.048834606		-0.352470235		0.751624422
F		0.049887614		1.820306748		-3.797910242
F		-0.358882177		1.945868169		-0.77530358
F		2.595018261		2.412617236		-0.324130642
F		1.253791171		0.038089402		-1.61409401
F		0.446850213		1.550055266		1.622226034
F		2.54421936		0.594980513		3.624195961
F		0.030361653		-1.212083677		2.808126017
