12
-187.38518821
Al		1.282151132		0.049506594		2.444090479
Al		1.268606764		1.198779996		-0.078760426
Al		-0.319578115		0.836347442		-2.321994877
F		-1.65955564		-0.382727452		-2.224557291
F		2.047085876		-0.35251344		0.751099167
F		0.049924764		1.820263418		-3.797929882
F		-0.358861732		1.947487009		-0.776149005
F		2.595889201		2.411601471		-0.324591032
F		1.252694311		0.037725972		-1.612679575
F		0.447522523		1.551353881		1.623320294
F		2.54425651		0.594937183		3.624176321
F		0.031557323		-1.213478167		2.807493972
