12
-187.38518821
Al		1.282077947		0.049591945		2.444129168
Al		1.267362402		1.200231278		-0.078102643
Al		-0.3196513		0.836432793		-2.321956195
F		-1.657881702		-0.384679738		-2.225442154
F		2.044637654		-0.352573927		0.75036381
F		0.049976774		1.820202756		-3.797957378
F		-0.358833109		1.949753385		-0.7773326
F		2.597108517		2.4101794		-0.325235578
F		1.251158707		0.03721717		-1.610699366
F		0.448463757		1.553171942		1.624852258
F		2.54430852		0.594876521		3.624148825
F		0.033231261		-1.215430453		2.806609109
