12
-187.38518821
Al		1.282036127		0.049640717		2.444151276
Al		1.266651338		1.201060582		-0.077726767
Al		-0.31969312		0.836481565		-2.321934091
F		-1.656925166		-0.38579533		-2.22594779
F		2.04323867		-0.352608491		0.749943606
F		0.050006494		1.820168092		-3.79797309
F		-0.358816753		1.951048457		-0.77800894
F		2.597805269		2.409366788		-0.32560389
F		1.250281219		0.036926426		-1.609567818
F		0.449001605		1.554210834		1.625727666
F		2.54433824		0.594841857		3.624133113
F		0.034187797		-1.216546045		2.806103473
