12
-187.38518821
Al		1.282004762		0.049677296		2.444167857
Al		1.26611804		1.20168256		-0.07744486
Al		-0.319724485		0.836518144		-2.321917513
F		-1.656207764		-0.386632024		-2.226327017
F		2.042189432		-0.352634414		0.749628453
F		0.050028784		1.820142094		-3.797984874
F		-0.358804486		1.952019761		-0.778516195
F		2.598327833		2.408757329		-0.325880124
F		1.249623103		0.036708368		-1.608719157
F		0.449404991		1.554990003		1.626384222
F		2.54436053		0.594815859		3.624121329
F		0.034905199		-1.217382739		2.805724246
