12
-187.38518821
Al		1.281962942		0.049726068		2.444189965
Al		1.265406976		1.202511864		-0.077068984
Al		-0.319766305		0.836566916		-2.321895409
F		-1.655251228		-0.387747616		-2.226832653
F		2.040790448		-0.352668978		0.749208249
F		0.050058504		1.82010743		-3.798000586
F		-0.35878813		1.953314833		-0.779192535
F		2.599024585		2.407944717		-0.326248436
F		1.248745615		0.036417624		-1.607587609
F		0.449942839		1.556028895		1.62725963
F		2.54439025		0.594781195		3.624105617
F		0.035861735		-1.218498331		2.80521861
