12
-187.38518821
Al		1.281900212		0.049799226		2.444223127
Al		1.26434038		1.20375582		-0.07650517
Al		-0.319829035		0.836640074		-2.321862253
F		-1.653816424		-0.389421004		-2.227591107
F		2.038691972		-0.352720824		0.748577943
F		0.050103084		1.820055434		-3.798024154
F		-0.358763596		1.955257441		-0.780207045
F		2.600069713		2.406725799		-0.326800904
F		1.247429383		0.035981508		-1.605890287
F		0.450749611		1.557587233		1.628572742
F		2.54443483		0.594729199		3.624082049
F		0.037296539		-1.220171719		2.804460156
