12
-187.38518821
Al		1.281712022		0.0500187		2.444322613
Al		1.261140592		1.207487688		-0.074813728
Al		-0.320017225		0.836859548		-2.321762785
F		-1.649512012		-0.394441168		-2.229866469
F		2.032396544		-0.352876362		0.746687025
F		0.050236824		1.819899446		-3.798094858
F		-0.358689994		1.961085265		-0.783250575
F		2.603205097		2.403069045		-0.328458308
F		1.243480687		0.03467316		-1.600798321
F		0.453169927		1.562262247		1.632512078
F		2.54456857		0.594573211		3.624011345
F		0.041600951		-1.225191883		2.802184794
