12
-187.38518821
Al		1.281680657		0.050055279		2.444339194
Al		1.260607294		1.208109666		-0.074531821
Al		-0.32004859		0.836896127		-2.321746207
F		-1.64879461		-0.395277862		-2.230245696
F		2.031347306		-0.352902285		0.746371872
F		0.050259114		1.819873448		-3.798106642
F		-0.358677727		1.962056569		-0.78375783
F		2.603727661		2.402459586		-0.328734542
F		1.242822571		0.034455102		-1.59994966
F		0.453573313		1.563041416		1.633168634
F		2.54459086		0.594547213		3.623999561
F		0.042318353		-1.226028577		2.801805567
