12
-187.38518821
Al		1.281649292		0.050091858		2.444355775
Al		1.260073996		1.208731644		-0.074249914
Al		-0.320079955		0.836932706		-2.321729629
F		-1.648077208		-0.396114556		-2.230624923
F		2.030298068		-0.352928208		0.746056719
F		0.050281404		1.81984745		-3.798118426
F		-0.35866546		1.963027873		-0.784265085
F		2.604250225		2.401850127		-0.329010776
F		1.242164455		0.034237044		-1.599100999
F		0.453976699		1.563820585		1.63382519
F		2.54461315		0.594521215		3.623987777
F		0.043035755		-1.226865271		2.80142634
