12
-187.38518821
Al		1.281638837		0.050104051		2.444361302
Al		1.25989623		1.20893897		-0.074155945
Al		-0.32009041		0.836944899		-2.321724103
F		-1.647838074		-0.396393454		-2.230751332
F		2.029948322		-0.352936849		0.745951668
F		0.050288834		1.819838784		-3.798122354
F		-0.358661371		1.963351641		-0.78443417
F		2.604424413		2.401646974		-0.329102854
F		1.241945083		0.034164358		-1.598818112
F		0.454111161		1.564080308		1.634044042
F		2.54462058		0.594512549		3.623983849
F		0.043274889		-1.227144169		2.801299931
