12
-187.38518821
Al		1.282736612		0.048823786		2.443780967
Al		1.27856166		1.18716974		-0.08402269
Al		-0.318992635		0.835664634		-2.322304333
F		-1.672947144		-0.367109164		-2.217478387
F		2.066671652		-0.352029544		0.756982023
F		0.049508684		1.820748714		-3.797709914
F		-0.359090716		1.929356001		-0.766680245
F		2.586134673		2.422978039		-0.319434664
F		1.264979143		0.041796388		-1.628521247
F		0.439992651		1.536809393		1.611064582
F		2.54384043		0.595422479		3.624396289
F		0.018165819		-1.197859879		2.814572876
