12
-187.38518821
Al		1.282809797		0.048738435		2.443742278
Al		1.279806022		1.185718458		-0.084680473
Al		-0.31891945		0.835579283		-2.322343015
F		-1.674621082		-0.365156878		-2.216593524
F		2.069119874		-0.351969057		0.75771738
F		0.049456674		1.820809376		-3.797682418
F		-0.359119339		1.927089625		-0.76549665
F		2.584915357		2.42440011		-0.318790118
F		1.266514747		0.04230519		-1.630501456
F		0.439051417		1.534991332		1.609532618
F		2.54378842		0.595483141		3.624423785
F		0.016491881		-1.195907593		2.815457739
