12
-187.38518821
Al		1.282830707		0.048714049		2.443731224
Al		1.280161554		1.185303806		-0.084868411
Al		-0.31889854		0.835554897		-2.322354067
F		-1.67509935		-0.364599082		-2.216340706
F		2.069819366		-0.351951775		0.757927482
F		0.049441814		1.820826708		-3.797674562
F		-0.359127517		1.926442089		-0.76515848
F		2.584566981		2.424806416		-0.318605962
F		1.266953491		0.042450562		-1.63106723
F		0.438782493		1.534471886		1.609094914
F		2.54377356		0.595500473		3.624431641
F		0.016013613		-1.195349797		2.815710557
