12
-187.38518821
Al		1.282652972		0.04892133		2.443825183
Al		1.277139532		1.188828348		-0.083270938
Al		-0.319076275		0.835762178		-2.322260125
F		-1.671034072		-0.369340348		-2.218489659
F		2.063873684		-0.352098672		0.756141615
F		0.049568124		1.820679386		-3.797741338
F		-0.359058004		1.931946145		-0.768032925
F		2.587528177		2.421352815		-0.320171288
F		1.263224167		0.0412149		-1.626258151
F		0.441068347		1.538887177		1.612815398
F		2.54389987		0.595353151		3.624364865
F		0.020078891		-1.200091063		2.813561604
