12
-187.38518821
Al		1.282851617		0.048689663		2.44372017
Al		1.280517086		1.184889154		-0.085056349
Al		-0.31887763		0.835530511		-2.322365119
F		-1.675577618		-0.364041286		-2.216087888
F		2.070518858		-0.351934493		0.758137584
F		0.049426954		1.82084404		-3.797666706
F		-0.359135695		1.925794553		-0.76482031
F		2.584218605		2.425212722		-0.318421806
F		1.267392235		0.042595934		-1.631633004
F		0.438513569		1.53395244		1.60865721
F		2.5437587		0.595517805		3.624439497
F		0.015535345		-1.194792001		2.815963375
