12
-187.38518821
Al		1.282872527		0.048665277		2.443709116
Al		1.280872618		1.184474502		-0.085244287
Al		-0.31885672		0.835506125		-2.322376171
F		-1.676055886		-0.36348349		-2.21583507
F		2.07121835		-0.351917211		0.758347686
F		0.049412094		1.820861372		-3.79765885
F		-0.359143873		1.925147017		-0.76448214
F		2.583870229		2.425619028		-0.31823765
F		1.267830979		0.042741306		-1.632198778
F		0.438244645		1.533432994		1.608219506
F		2.54374384		0.595535137		3.624447353
F		0.015057077		-1.194234205		2.816216193
