12
-187.38518821
Al		1.282903892		0.048628698		2.443692535
Al		1.281405916		1.183852524		-0.085526194
Al		-0.318825355		0.835469546		-2.322392749
F		-1.676773288		-0.362646796		-2.215455843
F		2.072267588		-0.351891288		0.758662839
F		0.049389804		1.82088737		-3.797647066
F		-0.35915614		1.924175713		-0.763974885
F		2.583347665		2.426228487		-0.317961416
F		1.268489095		0.042959364		-1.633047439
F		0.437841259		1.532653825		1.60756295
F		2.54372155		0.595561135		3.624459137
F		0.014339675		-1.193397511		2.81659542
