12
-187.38518821
Al		1.282935257		0.048592119		2.443675954
Al		1.281939214		1.183230546		-0.085808101
Al		-0.31879399		0.835432967		-2.322409327
F		-1.67749069		-0.361810102		-2.215076616
F		2.073316826		-0.351865365		0.758977992
F		0.049367514		1.820913368		-3.797635282
F		-0.359168407		1.923204409		-0.76346763
F		2.582825101		2.426837946		-0.317685182
F		1.269147211		0.043177422		-1.6338961
F		0.437437873		1.531874656		1.606906394
F		2.54369926		0.595587133		3.624470921
F		0.013622273		-1.192560817		2.816974647
