12
-187.38518821
Al		1.282663427		0.048909137		2.443819656
Al		1.277317298		1.188621022		-0.083364907
Al		-0.31906582		0.835749985		-2.322265651
F		-1.671273206		-0.36906145		-2.21836325
F		2.06422343		-0.352090031		0.756246666
F		0.049560694		1.820688052		-3.79773741
F		-0.359062093		1.931622377		-0.76786384
F		2.587353989		2.421555968		-0.32007921
F		1.263443539		0.041287586		-1.626541038
F		0.440933885		1.538627454		1.612596546
F		2.54389244		0.595361817		3.624368793
F		0.019839757		-1.199812165		2.813688013
