12
-187.38518821
Al		1.282945712		0.048579926		2.443670427
Al		1.28211698		1.18302322		-0.08590207
Al		-0.318783535		0.835420774		-2.322414853
F		-1.677729824		-0.361531204		-2.214950207
F		2.073666572		-0.351856724		0.759083043
F		0.049360084		1.820922034		-3.797631354
F		-0.359172496		1.922880641		-0.763298545
F		2.582650913		2.427041099		-0.317593104
F		1.269366583		0.043250108		-1.634178987
F		0.437303411		1.531614933		1.606687542
F		2.54369183		0.595595799		3.624474849
F		0.013383139		-1.192281919		2.817101056
