12
-187.38518821
Al		1.282956167		0.048567733		2.4436649
Al		1.282294746		1.182815894		-0.085996039
Al		-0.31877308		0.835408581		-2.322420379
F		-1.677968958		-0.361252306		-2.214823798
F		2.074016318		-0.351848083		0.759188094
F		0.049352654		1.8209307		-3.797627426
F		-0.359176585		1.922556873		-0.76312946
F		2.582476725		2.427244252		-0.317501026
F		1.269585955		0.043322794		-1.634461874
F		0.437168949		1.53135521		1.60646869
F		2.5436844		0.595604465		3.624478777
F		0.013144005		-1.192003021		2.817227465
