12
-187.38518821
Al		1.282987532		0.048531154		2.443648319
Al		1.282828044		1.182193916		-0.086277946
Al		-0.318741715		0.835372002		-2.322436957
F		-1.67868636		-0.360415612		-2.214444571
F		2.075065556		-0.35182216		0.759503247
F		0.049330364		1.820956698		-3.797615642
F		-0.359188852		1.921585569		-0.762622205
F		2.581954161		2.427853711		-0.317224792
F		1.270244071		0.043540852		-1.635310535
F		0.436765563		1.530576041		1.605812134
F		2.54366211		0.595630463		3.624490561
F		0.012426603		-1.191166327		2.817606692
