12
-187.38518821
Al		1.282997987		0.048518961		2.443642792
Al		1.28300581		1.18198659		-0.086371915
Al		-0.31873126		0.835359809		-2.322442483
F		-1.678925494		-0.360136714		-2.214318162
F		2.075415302		-0.351813519		0.759608298
F		0.049322934		1.820965364		-3.797611714
F		-0.359192941		1.921261801		-0.76245312
F		2.581779973		2.428056864		-0.317132714
F		1.270463443		0.043613538		-1.635593422
F		0.436631101		1.530316318		1.605593282
F		2.54365468		0.595639129		3.624494489
F		0.012187469		-1.190887429		2.817733101
