12
-187.38518821
Al		1.283018897		0.048494575		2.443631738
Al		1.283361342		1.181571938		-0.086559853
Al		-0.31871035		0.835335423		-2.322453535
F		-1.679403762		-0.359578918		-2.214065344
F		2.076114794		-0.351796237		0.7598184
F		0.049308074		1.820982696		-3.797603858
F		-0.359201119		1.920614265		-0.76211495
F		2.581431597		2.42846317		-0.316948558
F		1.270902187		0.04375891		-1.636159196
F		0.436362177		1.529796872		1.605155578
F		2.54363982		0.595656461		3.624502345
F		0.011709201		-1.190329633		2.817985919
