12
-187.38518821
Al		1.283039807		0.048470189		2.443620684
Al		1.283716874		1.181157286		-0.086747791
Al		-0.31868944		0.835311037		-2.322464587
F		-1.67988203		-0.359021122		-2.213812526
F		2.076814286		-0.351778955		0.760028502
F		0.049293214		1.821000028		-3.797596002
F		-0.359209297		1.919966729		-0.76177678
F		2.581083221		2.428869476		-0.316764402
F		1.271340931		0.043904282		-1.63672497
F		0.436093253		1.529277426		1.604717874
F		2.54362496		0.595673793		3.624510201
F		0.011230933		-1.189771837		2.818238737
