12
-187.38518821
Al		1.282673882		0.048896944		2.443814129
Al		1.277495064		1.188413696		-0.083458876
Al		-0.319055365		0.835737792		-2.322271177
F		-1.67151234		-0.368782552		-2.218236841
F		2.064573176		-0.35208139		0.756351717
F		0.049553264		1.820696718		-3.797733482
F		-0.359066182		1.931298609		-0.767694755
F		2.587179801		2.421759121		-0.319987132
F		1.263662911		0.041360272		-1.626823925
F		0.440799423		1.538367731		1.612377694
F		2.54388501		0.595370483		3.624372721
F		0.019600623		-1.199533267		2.813814422
