12
-187.38518821
Al		1.283081627		0.048421417		2.443598576
Al		1.284427938		1.180327982		-0.087123667
Al		-0.31864762		0.835262265		-2.322486691
F		-1.680838566		-0.35790553		-2.21330689
F		2.07821327		-0.351744391		0.760448706
F		0.049263494		1.821034692		-3.79758029
F		-0.359225653		1.918671657		-0.76110044
F		2.580386469		2.429682088		-0.31639609
F		1.272218419		0.044195026		-1.637856518
F		0.435555405		1.528238534		1.603842466
F		2.54359524		0.595708457		3.624525913
F		0.010274397		-1.188656245		2.818744373
