12
-187.38518821
Al		1.283102537		0.048397031		2.443587522
Al		1.28478347		1.17991333		-0.087311605
Al		-0.31862671		0.835237879		-2.322497743
F		-1.681316834		-0.357347734		-2.213054072
F		2.078912762		-0.351727109		0.760658808
F		0.049248634		1.821052024		-3.797572434
F		-0.359233831		1.918024121		-0.76076227
F		2.580038093		2.430088394		-0.316211934
F		1.272657163		0.044340398		-1.638422292
F		0.435286481		1.527719088		1.603404762
F		2.54358038		0.595725789		3.624533769
F		0.009796129		-1.188098449		2.818997191
