12
-187.38518821
Al		1.283133902		0.048360452		2.443570941
Al		1.285316768		1.179291352		-0.087593512
Al		-0.318595345		0.8352013		-2.322514321
F		-1.682034236		-0.35651104		-2.212674845
F		2.079962		-0.351701186		0.760973961
F		0.049226344		1.821078022		-3.79756065
F		-0.359246098		1.917052817		-0.760255015
F		2.579515529		2.430697853		-0.3159357
F		1.273315279		0.044558456		-1.639270953
F		0.434883095		1.526939919		1.602748206
F		2.54355809		0.595751787		3.624545553
F		0.009078727		-1.187261755		2.819376418
