12
-187.38518821
Al		1.283144357		0.048348259		2.443565414
Al		1.285494534		1.179084026		-0.087687481
Al		-0.31858489		0.835189107		-2.322519847
F		-1.68227337		-0.356232142		-2.212548436
F		2.080311746		-0.351692545		0.761079012
F		0.049218914		1.821086688		-3.797556722
F		-0.359250187		1.916729049		-0.76008593
F		2.579341341		2.430901006		-0.315843622
F		1.273534651		0.044631142		-1.63955384
F		0.434748633		1.526680196		1.602529354
F		2.54355066		0.595760453		3.624549481
F		0.008839593		-1.186982857		2.819502827
