12
-187.38518821
Al		1.283248907		0.048226329		2.443510144
Al		1.287272194		1.177010766		-0.088627171
Al		-0.31848034		0.835067177		-2.322575107
F		-1.68466471		-0.353443162		-2.211284346
F		2.083809206		-0.351606135		0.762129522
F		0.049144614		1.821173348		-3.797517442
F		-0.359291077		1.913491369		-0.75839508
F		2.577599461		2.432932536		-0.314922842
F		1.275728371		0.045358002		-1.64238271
F		0.433404013		1.524082966		1.600340834
F		2.54347636		0.595847113		3.624588761
F		0.006448253		-1.184193877		2.820766917
