12
-187.38518821
Al		1.283259362		0.048214136		2.443504617
Al		1.28744996		1.17680344		-0.08872114
Al		-0.318469885		0.835054984		-2.322580633
F		-1.684903844		-0.353164264		-2.211157937
F		2.084158952		-0.351597494		0.762234573
F		0.049137184		1.821182014		-3.797513514
F		-0.359295166		1.913167601		-0.758225995
F		2.577425273		2.433135689		-0.314830764
F		1.275947743		0.045430688		-1.642665597
F		0.433269551		1.523823243		1.600121982
F		2.54346893		0.595855779		3.624592689
F		0.006209119		-1.183914979		2.820893326
