12
-187.38518821
Al		1.283269817		0.048201943		2.44349909
Al		1.287627726		1.176596114		-0.088815109
Al		-0.31845943		0.835042791		-2.322586159
F		-1.685142978		-0.352885366		-2.211031528
F		2.084508698		-0.351588853		0.762339624
F		0.049129754		1.82119068		-3.797509586
F		-0.359299255		1.912843833		-0.75805691
F		2.577251085		2.433338842		-0.314738686
F		1.276167115		0.045503374		-1.642948484
F		0.433135089		1.52356352		1.59990313
F		2.5434615		0.595864445		3.624596617
F		0.005969985		-1.183636081		2.821019735
