12
-187.38518821
Al		1.283280272		0.04818975		2.443493563
Al		1.287805492		1.176388788		-0.088909078
Al		-0.318448975		0.835030598		-2.322591685
F		-1.685382112		-0.352606468		-2.210905119
F		2.084858444		-0.351580212		0.762444675
F		0.049122324		1.821199346		-3.797505658
F		-0.359303344		1.912520065		-0.757887825
F		2.577076897		2.433541995		-0.314646608
F		1.276386487		0.04557606		-1.643231371
F		0.433000627		1.523303797		1.599684278
F		2.54345407		0.595873111		3.624600545
F		0.005730851		-1.183357183		2.821146144
