12
-187.38518821
Al		1.283301182		0.048165364		2.443482509
Al		1.288161024		1.175974136		-0.089097016
Al		-0.318428065		0.835006212		-2.322602737
F		-1.68586038		-0.352048672		-2.210652301
F		2.085557936		-0.35156293		0.762654777
F		0.049107464		1.821216678		-3.797497802
F		-0.359311522		1.911872529		-0.757549655
F		2.576728521		2.433948301		-0.314462452
F		1.276825231		0.045721432		-1.643797145
F		0.432731703		1.522784351		1.599246574
F		2.54343921		0.595890443		3.624608401
F		0.005252583		-1.182799387		2.821398962
