12
-187.38518821
Al		1.283322092		0.048140978		2.443471455
Al		1.288516556		1.175559484		-0.089284954
Al		-0.318407155		0.834981826		-2.322613789
F		-1.686338648		-0.351490876		-2.210399483
F		2.086257428		-0.351545648		0.762864879
F		0.049092604		1.82123401		-3.797489946
F		-0.3593197		1.911224993		-0.757211485
F		2.576380145		2.434354607		-0.314278296
F		1.277263975		0.045866804		-1.644362919
F		0.432462779		1.522264905		1.59880887
F		2.54342435		0.595907775		3.624616257
F		0.004774315		-1.182241591		2.82165178
