12
-187.38518821
Al		1.283332547		0.048128785		2.443465928
Al		1.288694322		1.175352158		-0.089378923
Al		-0.3183967		0.834969633		-2.322619315
F		-1.686577782		-0.351211978		-2.210273074
F		2.086607174		-0.351537007		0.76296993
F		0.049085174		1.821242676		-3.797486018
F		-0.359323789		1.910901225		-0.7570424
F		2.576205957		2.43455776		-0.314186218
F		1.277483347		0.04593949		-1.644645806
F		0.432328317		1.522005182		1.598590018
F		2.54341692		0.595916441		3.624620185
F		0.004535181		-1.181962693		2.821778189
