12
-187.38518821
Al		1.283384822		0.04806782		2.443438293
Al		1.289583152		1.174315528		-0.089848768
Al		-0.318344425		0.834908668		-2.322646945
F		-1.687773452		-0.349817488		-2.209641029
F		2.088355904		-0.351493802		0.763495185
F		0.049048024		1.821286006		-3.797466378
F		-0.359344234		1.909282385		-0.756196975
F		2.575335017		2.435573525		-0.313725828
F		1.278580207		0.04630292		-1.646060241
F		0.431656007		1.520706567		1.597495758
F		2.54337977		0.595959771		3.624639825
F		0.003339511		-1.180568203		2.822410234
