12
-187.38518821
Al		1.283395277		0.048055627		2.443432766
Al		1.289760918		1.174108202		-0.089942737
Al		-0.31833397		0.834896475		-2.322652471
F		-1.688012586		-0.34953859		-2.20951462
F		2.08870565		-0.351485161		0.763600236
F		0.049040594		1.821294672		-3.79746245
F		-0.359348323		1.908958617		-0.75602789
F		2.575160829		2.435776678		-0.31363375
F		1.278799579		0.046375606		-1.646343128
F		0.431521545		1.520446844		1.597276906
F		2.54337234		0.595968437		3.624643753
F		0.003100377		-1.180289305		2.822536643
