12
-187.38518821
Al		1.283405732		0.048043434		2.443427239
Al		1.289938684		1.173900876		-0.090036706
Al		-0.318323515		0.834884282		-2.322657997
F		-1.68825172		-0.349259692		-2.209388211
F		2.089055396		-0.35147652		0.763705287
F		0.049033164		1.821303338		-3.797458522
F		-0.359352412		1.908634849		-0.755858805
F		2.574986641		2.435979831		-0.313541672
F		1.279018951		0.046448292		-1.646626015
F		0.431387083		1.520187121		1.597058054
F		2.54336491		0.595977103		3.624647681
F		0.002861243		-1.180010407		2.822663052
