12
-187.38518821
Al		1.283426642		0.048019048		2.443416185
Al		1.290294216		1.173486224		-0.090224644
Al		-0.318302605		0.834859896		-2.322669049
F		-1.688729988		-0.348701896		-2.209135393
F		2.089754888		-0.351459238		0.763915389
F		0.049018304		1.82132067		-3.797450666
F		-0.35936059		1.907987313		-0.755520635
F		2.574638265		2.436386137		-0.313357516
F		1.279457695		0.046593664		-1.647191789
F		0.431118159		1.519667675		1.59662035
F		2.54335005		0.595994435		3.624655537
F		0.002382975		-1.179452611		2.82291587
