12
-187.38518821
Al		1.283468462		0.047970276		2.443394077
Al		1.29100528		1.17265692		-0.09060052
Al		-0.318260785		0.834811124		-2.322691153
F		-1.689686524		-0.347586304		-2.208629757
F		2.091153872		-0.351424674		0.764335593
F		0.048988584		1.821355334		-3.797434954
F		-0.359376946		1.906692241		-0.754844295
F		2.573941513		2.437198749		-0.312989204
F		1.280335183		0.046884408		-1.648323337
F		0.430580311		1.518628783		1.595744942
F		2.54332033		0.596029099		3.624671249
F		0.001426439		-1.178337019		2.823421506
