12
-187.38518821
Al		1.283573012		0.047848346		2.443338807
Al		1.29278294		1.17058366		-0.09154021
Al		-0.318156235		0.834689194		-2.322746413
F		-1.692077864		-0.344797324		-2.207365667
F		2.094651332		-0.351338264		0.765386103
F		0.048914284		1.821441994		-3.797395674
F		-0.359417836		1.903454561		-0.753153445
F		2.572199633		2.439230279		-0.312068424
F		1.282528903		0.047611268		-1.651152207
F		0.429235691		1.516031553		1.593556422
F		2.54324603		0.596115759		3.624710529
F		-0.000964901		-1.175548039		2.824685596
