12
-187.38518821
Al		1.283656652		0.047750802		2.443294591
Al		1.294205068		1.168925052		-0.092291962
Al		-0.318072595		0.83459165		-2.322790621
F		-1.693990936		-0.34256614		-2.206354395
F		2.0974493		-0.351269136		0.766226511
F		0.048854844		1.821511322		-3.79736425
F		-0.359450548		1.900864417		-0.751800765
F		2.570806129		2.440855503		-0.3113318
F		1.284283879		0.048192756		-1.653415303
F		0.428159995		1.513953769		1.591805606
F		2.54318659		0.596185087		3.624741953
F		-0.002877973		-1.173316855		2.825696868
