12
-187.38518821
Al		1.283667107		0.047738609		2.443289064
Al		1.294382834		1.168717726		-0.092385931
Al		-0.31806214		0.834579457		-2.322796147
F		-1.69423007		-0.342287242		-2.206227986
F		2.097799046		-0.351260495		0.766331562
F		0.048847414		1.821519988		-3.797360322
F		-0.359454637		1.900540649		-0.75163168
F		2.570631941		2.441058656		-0.311239722
F		1.284503251		0.048265442		-1.65369819
F		0.428025533		1.513694046		1.591586754
F		2.54317916		0.596193753		3.624745881
F		-0.003117107		-1.173037957		2.825823277
