12
Properties=species:S:1:pos:R:3:forces:R:3 energy=-183.81875690 pbc="F F F"
Al    -1.7021092610000002    2.49449862    -1.243582491    -0.14227    -0.542426    -0.230223
Al    -0.732797555    0.017600005999999998    -2.1097263739999996    -3.642571    -0.165115    3.84215
Al    -1.993795576    -0.238969718    -0.726021637    3.386823    1.265126    -3.871257
F    -0.816392341    3.630113236    -0.225843457    -0.098314    -0.149485    -0.117314
F    -2.9871896469999997    3.1970315929999997    -2.284437792    -0.105766    0.2546    -0.049179
F    -1.38345488    -2.658388627    -1.908644761    -0.017666    -4.774841    -0.901461
F    -2.717150962    1.508624483    0.338596362    -1.219206    0.640073    1.965192
F    -2.913499963    -0.997558032    0.24513385299999998    1.370119    1.258794    -1.460127
F    0.253284598    -0.353227941    -3.229807504    -1.50539    0.673731    1.695193
F    -0.088076925    2.0435491139999997    -2.546308431    1.671395    1.228208    -1.206688
F    -2.716945157    0.638390951    -2.512587628    0.237123    0.013904    0.218668
F    -0.03243876799999998    0.275111039    -0.13350120799999998    0.065724    0.297432    0.115047
