12
-185.77729729
Al		0.275339426		-2.328088415		-1.826730075
Al		2.034787624		-0.54092544		-0.807637074
Al		-0.335078153		0.309135895		-1.802268418
F		3.625018946		-0.180047418		-0.03137989
F		-0.166616459		-4.032102539		-2.230035702
F		2.100855014		-1.811855384		-2.287865465
F		1.529619876		0.656322657		-2.264653373
F		-1.483353594		1.652271981		-2.175219977
F		-1.142707862		-1.274841436		-0.99566121
F		-0.11683827		-1.01639231		-3.218615215
F		0.503825481		0.397465119		-0.041712202
F		1.075343567		-2.070454548		-0.064763666
