12
-185.77729729
Al		0.256574372		-2.332821011		-1.786062261
Al		2.04335053		-0.538765854		-0.826194624
Al		-0.324876005		0.311708905		-1.824378682
F		3.61528289		-0.182502915		-0.010279822
F		-0.145280474		-4.026721493		-2.276275236
F		2.083963436		-1.818004274		-2.28122009
F		1.542923595		0.667045842		-2.285141918
F		-1.494953523		1.649346432		-2.150080511
F		-1.154031383		-1.263910153		-0.986894067
F		-0.11508597		-1.02973751		-3.20663968
F		0.511496397		0.392031801		-0.066680002
F		1.080831731		-2.067181608		-0.046695374
