12
-185.77729729
Al		0.273443966		-2.328566455		-1.822622215
Al		2.035652564		-0.5407073		-0.809511574
Al		-0.334047633		0.309395795		-1.804501778
F		3.624035506		-0.180295448		-0.02924857
F		-0.164461309		-4.031558999		-2.234706362
F		2.099148794		-1.812476484		-2.287194215
F		1.530963686		0.657405807		-2.266722923
F		-1.484525304		1.651976471		-2.172680637
F		-1.143851652		-1.273737266		-0.99477564
F		-0.11666127		-1.01774031		-3.217405565
F		0.504600321		0.396916299		-0.044234202
F		1.075897927		-2.070123948		-0.062938586
