12
-185.77729729
Al		0.27325442		-2.328614259		-1.822211429
Al		2.035739058		-0.540685486		-0.809699024
Al		-0.333944581		0.309421785		-1.804725114
F		3.623937162		-0.180320251		-0.029035438
F		-0.164245794		-4.031504645		-2.235173428
F		2.098978172		-1.812538594		-2.28712709
F		1.531098067		0.657514122		-2.266929878
F		-1.484642475		1.65194692		-2.172426703
F		-1.143966031		-1.273626849		-0.994687083
F		-0.11664357		-1.01787511		-3.2172846
F		0.504677805		0.396861417		-0.044486402
F		1.075953363		-2.070090888		-0.062756078
