12
-185.77729729
Al		0.272685782		-2.328757671		-1.820979071
Al		2.03599854		-0.540620044		-0.810261374
Al		-0.333635425		0.309499755		-1.805395122
F		3.62364213		-0.18039466		-0.028396042
F		-0.163599249		-4.031341583		-2.236574626
F		2.098466306		-1.812724924		-2.286925715
F		1.53150121		0.657839067		-2.267550743
F		-1.484993988		1.651858267		-2.171664901
F		-1.144309168		-1.273295598		-0.994421412
F		-0.11659047		-1.01827951		-3.216921705
F		0.504910257		0.396696771		-0.045243002
F		1.076119671		-2.069991708		-0.062208554
