12
-185.77729729
Al		0.27230669		-2.328853279		-1.820157499
Al		2.036171528		-0.540576416		-0.810636274
Al		-0.333429321		0.309551735		-1.805841794
F		3.623445442		-0.180444266		-0.027969778
F		-0.163168219		-4.031232875		-2.237508758
F		2.098125062		-1.812849144		-2.286791465
F		1.531769972		0.658055697		-2.267964653
F		-1.48522833		1.651799165		-2.171157033
F		-1.144537926		-1.273074764		-0.994244298
F		-0.11655507		-1.01854911		-3.216679775
F		0.505065225		0.396587007		-0.045747402
F		1.076230543		-2.069925588		-0.061843538
