12
-185.77729729
Al		0.27514988		-2.328136219		-1.826319289
Al		2.034874118		-0.540903626		-0.807824524
Al		-0.334975101		0.309161885		-1.802491754
F		3.624920602		-0.180072221		-0.031166758
F		-0.166400944		-4.032048185		-2.230502768
F		2.100684392		-1.811917494		-2.28779834
F		1.529754257		0.656430972		-2.264860328
F		-1.483470765		1.65224243		-2.174966043
F		-1.142822241		-1.274731019		-0.995572653
F		-0.11682057		-1.01652711		-3.21849425
F		0.503902965		0.397410237		-0.041964402
F		1.075399003		-2.070421488		-0.064581158
