12
-185.77729729
Al		0.271548506		-2.329044495		-1.818514355
Al		2.036517504		-0.54048916		-0.811386074
Al		-0.333017113		0.309655695		-1.806735138
F		3.623052066		-0.180543478		-0.02711725
F		-0.162306159		-4.031015459		-2.239377022
F		2.097442574		-1.813097584		-2.286522965
F		1.532307496		0.658488957		-2.268792473
F		-1.485697014		1.651680961		-2.170141297
F		-1.144995442		-1.272633096		-0.99389007
F		-0.11648427		-1.01908831		-3.216195915
F		0.505375161		0.396367479		-0.046756202
F		1.076452287		-2.069793348		-0.061113506
