12
-185.77729729
Al		0.270979868		-2.329187907		-1.817281997
Al		2.036776986		-0.540423718		-0.811948424
Al		-0.332707957		0.309733665		-1.807405146
F		3.622757034		-0.180617887		-0.026477854
F		-0.161659614		-4.030852397		-2.24077822
F		2.096930708		-1.813283914		-2.28632159
F		1.532710639		0.658813902		-2.269413338
F		-1.486048527		1.651592308		-2.169379495
F		-1.145338579		-1.272301845		-0.993624399
F		-0.11643117		-1.01949271		-3.21583302
F		0.505607613		0.396202833		-0.047512802
F		1.076618595		-2.069694168		-0.060565982
