12
-185.77729729
Al		0.270790322		-2.329235711		-1.816871211
Al		2.03686348		-0.540401904		-0.812135874
Al		-0.332604905		0.309759655		-1.807628482
F		3.62265869		-0.18064269		-0.026264722
F		-0.161444099		-4.030798043		-2.241245286
F		2.096760086		-1.813346024		-2.286254465
F		1.53284502		0.658922217		-2.269620293
F		-1.486165698		1.651562757		-2.169125561
F		-1.145452958		-1.272191428		-0.993535842
F		-0.11641347		-1.01962751		-3.215712055
F		0.505685097		0.396147951		-0.047765002
F		1.076674031		-2.069661108		-0.060383474
