12
-185.77729729
Al		0.270600776		-2.329283515		-1.816460425
Al		2.036949974		-0.54038009		-0.812323324
Al		-0.332501853		0.309785645		-1.807851818
F		3.622560346		-0.180667493		-0.02605159
F		-0.161228584		-4.030743689		-2.241712352
F		2.096589464		-1.813408134		-2.28618734
F		1.532979401		0.659030532		-2.269827248
F		-1.486282869		1.651533206		-2.168871627
F		-1.145567337		-1.272081011		-0.993447285
F		-0.11639577		-1.01976231		-3.21559109
F		0.505762581		0.396093069		-0.048017202
F		1.076729467		-2.069628048		-0.060200966
