12
-185.77729729
Al		0.269842592		-2.329474731		-1.814817281
Al		2.03729595		-0.540292834		-0.813073124
Al		-0.332089645		0.309889605		-1.808745162
F		3.62216697		-0.180766705		-0.025199062
F		-0.160366524		-4.030526273		-2.243580616
F		2.095906976		-1.813656574		-2.28591884
F		1.533516925		0.659463792		-2.270655068
F		-1.486751553		1.651415002		-2.167855891
F		-1.146024853		-1.271639343		-0.993093057
F		-0.11632497		-1.02030151		-3.21510723
F		0.506072517		0.395873541		-0.049026002
F		1.076951211		-2.069495808		-0.059470934
