12
-185.77729729
Al		0.269084408		-2.329665947		-1.813174137
Al		2.037641926		-0.540205578		-0.813822924
Al		-0.331677437		0.309993565		-1.809638506
F		3.621773594		-0.180865917		-0.024346534
F		-0.159504464		-4.030308857		-2.24544888
F		2.095224488		-1.813905014		-2.28565034
F		1.534054449		0.659897052		-2.271482888
F		-1.487220237		1.651296798		-2.166840155
F		-1.146482369		-1.271197675		-0.992738829
F		-0.11625417		-1.02084071		-3.21462337
F		0.506382453		0.395654013		-0.050034802
F		1.077172955		-2.069363568		-0.058740902
