12
-185.77729729
Al		0.268894862		-2.329713751		-1.812763351
Al		2.03772842		-0.540183764		-0.814010374
Al		-0.331574385		0.310019555		-1.809861842
F		3.62167525		-0.18089072		-0.024133402
F		-0.159288949		-4.030254503		-2.245915946
F		2.095053866		-1.813967124		-2.285583215
F		1.53418883		0.660005367		-2.271689843
F		-1.487337408		1.651267247		-2.166586221
F		-1.146596748		-1.271087258		-0.992650272
F		-0.11623647		-1.02097551		-3.214502405
F		0.506459937		0.395599131		-0.050287002
F		1.077228391		-2.069330508		-0.058558394
