12
-185.77729729
Al		0.266999402		-2.330191791		-1.808655491
Al		2.03859336		-0.539965624		-0.815884874
Al		-0.330543865		0.310279455		-1.812095202
F		3.62069181		-0.18113875		-0.022002082
F		-0.157133799		-4.029710963		-2.250586606
F		2.093347646		-1.814588224		-2.284911965
F		1.53553264		0.661088517		-2.273759393
F		-1.488509118		1.650971737		-2.164046881
F		-1.147740538		-1.269983088		-0.991764702
F		-0.11605947		-1.02232351		-3.213292755
F		0.507234777		0.395050311		-0.052809002
F		1.077782751		-2.068999908		-0.056733314
