12
-185.77729729
Al		0.266430764		-2.330335203		-1.807423133
Al		2.038852842		-0.539900182		-0.816447224
Al		-0.330234709		0.310357425		-1.81276521
F		3.620396778		-0.181213159		-0.021362686
F		-0.156487254		-4.029547901		-2.251987804
F		2.09283578		-1.814774554		-2.28471059
F		1.535935783		0.661413462		-2.274380258
F		-1.488860631		1.650883084		-2.163285079
F		-1.148083675		-1.269651837		-0.991499031
F		-0.11600637		-1.02272791		-3.21292986
F		0.507467229		0.394885665		-0.053565602
F		1.077949059		-2.068900728		-0.05618579
