12
-185.77729729
Al		0.266241218		-2.330383007		-1.807012347
Al		2.038939336		-0.539878368		-0.816634674
Al		-0.330131657		0.310383415		-1.812988546
F		3.620298434		-0.181237962		-0.021149554
F		-0.156271739		-4.029493547		-2.25245487
F		2.092665158		-1.814836664		-2.284643465
F		1.536070164		0.661521777		-2.274587213
F		-1.488977802		1.650853533		-2.163031145
F		-1.148198054		-1.26954142		-0.991410474
F		-0.11598867		-1.02286271		-3.212808895
F		0.507544713		0.394830783		-0.053817802
F		1.078004495		-2.068867668		-0.056003282
