12
-185.77729729
Al		0.265862126		-2.330478615		-1.806190775
Al		2.039112324		-0.53983474		-0.817009574
Al		-0.329925553		0.310435395		-1.813435218
F		3.620101746		-0.181287568		-0.02072329
F		-0.155840709		-4.029384839		-2.253389002
F		2.092323914		-1.814960884		-2.284509215
F		1.536338926		0.661738407		-2.275001123
F		-1.489212144		1.650794431		-2.162523277
F		-1.148426812		-1.269320586		-0.99123336
F		-0.11595327		-1.02313231		-3.212566965
F		0.507699681		0.394721019		-0.054322202
F		1.078115367		-2.068801548		-0.055638266
