12
-185.77729729
Al		0.265293488		-2.330622027		-1.804958417
Al		2.039371806		-0.539769298		-0.817571924
Al		-0.329616397		0.310513365		-1.814105226
F		3.619806714		-0.181361977		-0.020083894
F		-0.155194164		-4.029221777		-2.2547902
F		2.091812048		-1.815147214		-2.28430784
F		1.536742069		0.662063352		-2.275621988
F		-1.489563657		1.650705778		-2.161761475
F		-1.148769949		-1.268989335		-0.990967689
F		-0.11590017		-1.02353671		-3.21220407
F		0.507932133		0.394556373		-0.055078802
F		1.078281675		-2.068702368		-0.055090742
