12
-185.77729729
Al		0.264535304		-2.330813243		-1.803315273
Al		2.039717782		-0.539682042		-0.818321724
Al		-0.329204189		0.310617325		-1.81499857
F		3.619413338		-0.181461189		-0.019231366
F		-0.154332104		-4.029004361		-2.256658464
F		2.09112956		-1.815395654		-2.28403934
F		1.537279593		0.662496612		-2.276449808
F		-1.490032341		1.650587574		-2.160745739
F		-1.149227465		-1.268547667		-0.990613461
F		-0.11582937		-1.02407591		-3.21172021
F		0.508242069		0.394336845		-0.056087602
F		1.078503419		-2.068570128		-0.05436071
