12
-185.77729729
Al		0.263966666		-2.330956655		-1.802082915
Al		2.039977264		-0.5396166		-0.818884074
Al		-0.328895033		0.310695295		-1.815668578
F		3.619118306		-0.181535598		-0.01859197
F		-0.153685559		-4.028841299		-2.258059662
F		2.090617694		-1.815581984		-2.283837965
F		1.537682736		0.662821557		-2.277070673
F		-1.490383854		1.650498921		-2.159983937
F		-1.149570602		-1.268216416		-0.99034779
F		-0.11577627		-1.02448031		-3.211357315
F		0.508474521		0.394172199		-0.056844202
F		1.078669727		-2.068470948		-0.053813186
