12
-185.77729729
Al		0.263587574		-2.331052263		-1.801261343
Al		2.040150252		-0.539572972		-0.819258974
Al		-0.328688929		0.310747275		-1.81611525
F		3.618921618		-0.181585204		-0.018165706
F		-0.153254529		-4.028732591		-2.258993794
F		2.09027645		-1.815706204		-2.283703715
F		1.537951498		0.663038187		-2.277484583
F		-1.490618196		1.650439819		-2.159476069
F		-1.14979936		-1.267995582		-0.990170676
F		-0.11574087		-1.02474991		-3.211115385
F		0.508629489		0.394062435		-0.057348602
F		1.078780599		-2.068404828		-0.05344817
