12
-185.77729729
Al		0.263018936		-2.331195675		-1.800028985
Al		2.040409734		-0.53950753		-0.819821324
Al		-0.328379773		0.310825245		-1.816785258
F		3.618626586		-0.181659613		-0.01752631
F		-0.152607984		-4.028569529		-2.260394992
F		2.089764584		-1.815892534		-2.28350234
F		1.538354641		0.663363132		-2.278105448
F		-1.490969709		1.650351166		-2.158714267
F		-1.150142497		-1.267664331		-0.989905005
F		-0.11568777		-1.02515431		-3.21075249
F		0.508861941		0.393897789		-0.058105202
F		1.078946907		-2.068305648		-0.052900646
