12
-185.77729729
Al		0.26282939		-2.331243479		-1.799618199
Al		2.040496228		-0.539485716		-0.820008774
Al		-0.328276721		0.310851235		-1.817008594
F		3.618528242		-0.181684416		-0.017313178
F		-0.152392469		-4.028515175		-2.260862058
F		2.089593962		-1.815954644		-2.283435215
F		1.538489022		0.663471447		-2.278312403
F		-1.49108688		1.650321615		-2.158460333
F		-1.150256876		-1.267553914		-0.989816448
F		-0.11567007		-1.02528911		-3.210631525
F		0.508939425		0.393842907		-0.058357402
F		1.079002343		-2.068272588		-0.052718138
