12
-185.77729729
Al		0.262260752		-2.331386891		-1.798385841
Al		2.04075571		-0.539420274		-0.820571124
Al		-0.327967565		0.310929205		-1.817678602
F		3.61823321		-0.181758825		-0.016673782
F		-0.151745924		-4.028352113		-2.262263256
F		2.089082096		-1.816140974		-2.28323384
F		1.538892165		0.663796392		-2.278933268
F		-1.491438393		1.650232962		-2.157698531
F		-1.150600013		-1.267222663		-0.989550777
F		-0.11561697		-1.02569351		-3.21026863
F		0.509171877		0.393678261		-0.059114002
F		1.079168651		-2.068173408		-0.052170614
