12
-185.77729729
Al		0.262071206		-2.331434695		-1.797975055
Al		2.040842204		-0.53939846		-0.820758574
Al		-0.327864513		0.310955195		-1.817901938
F		3.618134866		-0.181783628		-0.01646065
F		-0.151530409		-4.028297759		-2.262730322
F		2.088911474		-1.816203084		-2.283166715
F		1.539026546		0.663904707		-2.279140223
F		-1.491555564		1.650203411		-2.157444597
F		-1.150714392		-1.267112246		-0.98946222
F		-0.11559927		-1.02582831		-3.210147665
F		0.509249361		0.393623379		-0.059366202
F		1.079224087		-2.068140348		-0.051988106
