12
-185.77729729
Al		0.26188166		-2.331482499		-1.797564269
Al		2.040928698		-0.539376646		-0.820946024
Al		-0.327761461		0.310981185		-1.818125274
F		3.618036522		-0.181808431		-0.016247518
F		-0.151314894		-4.028243405		-2.263197388
F		2.088740852		-1.816265194		-2.28309959
F		1.539160927		0.664013022		-2.279347178
F		-1.491672735		1.65017386		-2.157190663
F		-1.150828771		-1.267001829		-0.989373663
F		-0.11558157		-1.02596311		-3.2100267
F		0.509326845		0.393568497		-0.059618402
F		1.079279523		-2.068107288		-0.051805598
