12
-185.77729729
Al		0.26093393		-2.331721519		-1.795510339
Al		2.041361168		-0.539267576		-0.821883274
Al		-0.327246201		0.311111135		-1.819241954
F		3.617544802		-0.181932446		-0.015181858
F		-0.150237319		-4.027971635		-2.265532718
F		2.087887742		-1.816575744		-2.282763965
F		1.539832832		0.664554597		-2.280381953
F		-1.49225859		1.650026105		-2.155920993
F		-1.151400666		-1.266449744		-0.988930878
F		-0.11549307		-1.02663711		-3.209421875
F		0.509714265		0.393294087		-0.060879402
F		1.079556703		-2.067941988		-0.050893058
