12
-185.77729729
Al		0.274012604		-2.328423043		-1.823854573
Al		2.035393082		-0.540772742		-0.808949224
Al		-0.334356789		0.309317825		-1.80383177
F		3.624330538		-0.180221039		-0.029887966
F		-0.165107854		-4.031722061		-2.233305164
F		2.09966066		-1.812290154		-2.28739559
F		1.530560543		0.657080862		-2.266102058
F		-1.484173791		1.652065124		-2.173442439
F		-1.143508515		-1.274068517		-0.995041311
F		-0.11671437		-1.01733591		-3.21776846
F		0.504367869		0.397080945		-0.043477602
F		1.075731619		-2.070223128		-0.06348611
