12
-185.77729729
Al		0.2599862		-2.331960539		-1.793456409
Al		2.041793638		-0.539158506		-0.822820524
Al		-0.326730941		0.311241085		-1.820358634
F		3.617053082		-0.182056461		-0.014116198
F		-0.149159744		-4.027699865		-2.267868048
F		2.087034632		-1.816886294		-2.28242834
F		1.540504737		0.665096172		-2.281416728
F		-1.492844445		1.64987835		-2.154651323
F		-1.151972561		-1.265897659		-0.988488093
F		-0.11540457		-1.02731111		-3.20881705
F		0.510101685		0.393019677		-0.062140402
F		1.079833883		-2.067776688		-0.049980518
