12
-185.77729729
Al		0.259228016		-2.332151755		-1.791813265
Al		2.042139614		-0.53907125		-0.823570324
Al		-0.326318733		0.311345045		-1.821251978
F		3.616659706		-0.182155673		-0.01326367
F		-0.148297684		-4.027482449		-2.269736312
F		2.086352144		-1.817134734		-2.28215984
F		1.541042261		0.665529432		-2.282244548
F		-1.493313129		1.649760146		-2.153635587
F		-1.152430077		-1.265455991		-0.988133865
F		-0.11533377		-1.02785031		-3.20833319
F		0.510411621		0.392800149		-0.063149202
F		1.080055627		-2.067644448		-0.049250486
