12
-185.77729729
Al		0.258848924		-2.332247363		-1.790991693
Al		2.042312602		-0.539027622		-0.823945224
Al		-0.326112629		0.311397025		-1.82169865
F		3.616463018		-0.182205279		-0.012837406
F		-0.147866654		-4.027373741		-2.270670444
F		2.0860109		-1.817258954		-2.28202559
F		1.541311023		0.665746062		-2.282658458
F		-1.493547471		1.649701044		-2.153127719
F		-1.152658835		-1.265235157		-0.987956751
F		-0.11529837		-1.02811991		-3.20809126
F		0.510566589		0.392690385		-0.063653602
F		1.080166499		-2.067578328		-0.04888547
