12
-185.77729729
Al		0.258659378		-2.332295167		-1.790580907
Al		2.042399096		-0.539005808		-0.824132674
Al		-0.326009577		0.311423015		-1.821921986
F		3.616364674		-0.182230082		-0.012624274
F		-0.147651139		-4.027319387		-2.27113751
F		2.085840278		-1.817321064		-2.281958465
F		1.541445404		0.665854377		-2.282865413
F		-1.493664642		1.649671493		-2.152873785
F		-1.152773214		-1.26512474		-0.987868194
F		-0.11528067		-1.02825471		-3.207970295
F		0.510644073		0.392635503		-0.063905802
F		1.080221935		-2.067545268		-0.048702962
