12
-185.77729729
Al		0.257901194		-2.332486383		-1.788937763
Al		2.042745072		-0.538918552		-0.824882474
Al		-0.325597369		0.311526975		-1.82281533
F		3.615971298		-0.182329294		-0.011771746
F		-0.146789079		-4.027101971		-2.273005774
F		2.08515779		-1.817569504		-2.281689965
F		1.541982928		0.666287637		-2.283693233
F		-1.494133326		1.649553289		-2.151858049
F		-1.15323073		-1.264683072		-0.987513966
F		-0.11520987		-1.02879391		-3.207486435
F		0.510954009		0.392415975		-0.064914602
F		1.080443679		-2.067413028		-0.04797293
