12
-185.77729729
Al		0.257711648		-2.332534187		-1.788526977
Al		2.042831566		-0.538896738		-0.825069924
Al		-0.325494317		0.311552965		-1.823038666
F		3.615872954		-0.182354097		-0.011558614
F		-0.146573564		-4.027047617		-2.27347284
F		2.084987168		-1.817631614		-2.28162284
F		1.542117309		0.666395952		-2.283900188
F		-1.494250497		1.649523738		-2.151604115
F		-1.153345109		-1.264572655		-0.987425409
F		-0.11519217		-1.02892871		-3.20736547
F		0.511031493		0.392361093		-0.065166802
F		1.080499115		-2.067379968		-0.047790422
