12
-185.77729729
Al		0.256953464		-2.332725403		-1.786883833
Al		2.043177542		-0.538809482		-0.825819724
Al		-0.325082109		0.311656925		-1.82393201
F		3.615479578		-0.182453309		-0.010706086
F		-0.145711504		-4.026830201		-2.275341104
F		2.08430468		-1.817880054		-2.28135434
F		1.542654833		0.666829212		-2.284728008
F		-1.494719181		1.649405534		-2.150588379
F		-1.153802625		-1.264130987		-0.987071181
F		-0.11512137		-1.02946791		-3.20688161
F		0.511341429		0.392141565		-0.066175602
F		1.080720859		-2.067247728		-0.04706039
