12
-185.77729729
Al		0.278561708		-2.327275747		-1.833713437
Al		2.033317226		-0.541296278		-0.804450424
Al		-0.336830037		0.308694065		-1.798471706
F		3.626690794		-0.179625767		-0.035003134
F		-0.170280214		-4.033026557		-2.22209558
F		2.103755588		-1.810799514		-2.28900659
F		1.527335399		0.654481302		-2.261135138
F		-1.481361687		1.652774348		-2.179536855
F		-1.140763419		-1.276718525		-0.997166679
F		-0.11713917		-1.01410071		-3.22067162
F		0.502508253		0.398398113		-0.037424802
F		1.074401155		-2.071016568		-0.067866302
