12
-185.77729729
Al		0.278751254		-2.327227943		-1.834124223
Al		2.033230732		-0.541318092		-0.804262974
Al		-0.336933089		0.308668075		-1.79824837
F		3.626789138		-0.179600964		-0.035216266
F		-0.170495729		-4.033080911		-2.221628514
F		2.10392621		-1.810737404		-2.289073715
F		1.527201018		0.654372987		-2.260928183
F		-1.481244516		1.652803899		-2.179790789
F		-1.14064904		-1.276828942		-0.997255236
F		-0.11715687		-1.01396591		-3.220792585
F		0.502430769		0.398452995		-0.037172602
F		1.074345719		-2.071049628		-0.06804881
