12
-185.77729729
Al		0.2789408		-2.327180139		-1.834535009
Al		2.033144238		-0.541339906		-0.804075524
Al		-0.337036141		0.308642085		-1.798025034
F		3.626887482		-0.179576161		-0.035429398
F		-0.170711244		-4.033135265		-2.221161448
F		2.104096832		-1.810675294		-2.28914084
F		1.527066637		0.654264672		-2.260721228
F		-1.481127345		1.65283345		-2.180044723
F		-1.140534661		-1.276939359		-0.997343793
F		-0.11717457		-1.01383111		-3.22091355
F		0.502353285		0.398507877		-0.036920402
F		1.074290283		-2.071082688		-0.068231318
