12
-185.77729729
Al		0.280457168		-2.326797707		-1.837821297
Al		2.032452286		-0.541514418		-0.802575924
Al		-0.337860557		0.308434165		-1.796238346
F		3.627674234		-0.179377737		-0.037134454
F		-0.172435364		-4.033570097		-2.21742492
F		2.105461808		-1.810178414		-2.28967784
F		1.525991589		0.653398152		-2.259065588
F		-1.480189977		1.653069858		-2.182076195
F		-1.139619629		-1.277822695		-0.998052249
F		-0.11731617		-1.01275271		-3.22188127
F		0.501733413		0.398946933		-0.034902802
F		1.073846795		-2.071347168		-0.069691382
