12
-185.77729729
Al		0.28083626		-2.326702099		-1.838642869
Al		2.032279298		-0.541558046		-0.802201024
Al		-0.338066661		0.308382185		-1.795791674
F		3.627870922		-0.179328131		-0.037560718
F		-0.172866394		-4.033678805		-2.216490788
F		2.105803052		-1.810054194		-2.28981209
F		1.525722827		0.653181522		-2.258651678
F		-1.479955635		1.65312896		-2.182584063
F		-1.139390871		-1.278043529		-0.998229363
F		-0.11735157		-1.01248311		-3.2221232
F		0.501578445		0.399056697		-0.034398402
F		1.073735923		-2.071413288		-0.070056398
