12
-185.77729729
Al		0.281215352		-2.326606491		-1.839464441
Al		2.03210631		-0.541601674		-0.801826124
Al		-0.338272765		0.308330205		-1.795345002
F		3.62806761		-0.179278525		-0.037986982
F		-0.173297424		-4.033787513		-2.215556656
F		2.106144296		-1.809929974		-2.28994634
F		1.525454065		0.652964892		-2.258237768
F		-1.479721293		1.653188062		-2.183091931
F		-1.139162113		-1.278264363		-0.998406477
F		-0.11738697		-1.01221351		-3.22236513
F		0.501423477		0.399166461		-0.033894002
F		1.073625051		-2.071479408		-0.070421414
