12
-185.77729729
Al		0.282352628		-2.326319667		-1.841929157
Al		2.031587346		-0.541732558		-0.800701424
Al		-0.338891077		0.308174265		-1.794004986
F		3.628657674		-0.179129707		-0.039265774
F		-0.174590514		-4.034113637		-2.21275426
F		2.107168028		-1.809557314		-2.29034909
F		1.524647779		0.652315002		-2.256996038
F		-1.479018267		1.653365368		-2.184615535
F		-1.138475839		-1.278926865		-0.998937819
F		-0.11749317		-1.01140471		-3.22309092
F		0.500958573		0.399495753		-0.032380802
F		1.073292435		-2.071677768		-0.071516462
