12
-185.77729729
Al		0.283868996		-2.325937235		-1.845215445
Al		2.030895394		-0.54190707		-0.799201824
Al		-0.339715493		0.307966345		-1.792218298
F		3.629444426		-0.178931283		-0.04097083
F		-0.176314634		-4.034548469		-2.209017732
F		2.108533004		-1.809060434		-2.29088609
F		1.523572731		0.651448482		-2.255340398
F		-1.478080899		1.653601776		-2.186647007
F		-1.137560807		-1.279810201		-0.999646275
F		-0.11763477		-1.01032631		-3.22405864
F		0.500338701		0.399934809		-0.030363202
F		1.072848947		-2.071942248		-0.072976526
