12
-185.77729729
Al		0.284437634		-2.325793823		-1.846447803
Al		2.030635912		-0.541972512		-0.798639474
Al		-0.340024649		0.307888375		-1.79154829
F		3.629739458		-0.178856874		-0.041610226
F		-0.176961179		-4.034711531		-2.207616534
F		2.10904487		-1.808874104		-2.291087465
F		1.523169588		0.651123537		-2.254719533
F		-1.477729386		1.653690429		-2.187408809
F		-1.13721767		-1.280141452		-0.999911946
F		-0.11768787		-1.00992191		-3.224421535
F		0.500106249		0.400099455		-0.029606602
F		1.072682639		-2.072041428		-0.07352405
