12
-185.77729729
Al		0.285006272		-2.325650411		-1.847680161
Al		2.03037643		-0.542037954		-0.798077124
Al		-0.340333805		0.307810405		-1.790878282
F		3.63003449		-0.178782465		-0.042249622
F		-0.177607724		-4.034874593		-2.206215336
F		2.109556736		-1.808687774		-2.29128884
F		1.522766445		0.650798592		-2.254098668
F		-1.477377873		1.653779082		-2.188170611
F		-1.136874533		-1.280472703		-1.000177617
F		-0.11774097		-1.00951751		-3.22478443
F		0.499873797		0.400264101		-0.028850002
F		1.072516331		-2.072140608		-0.074071574
