12
-185.77729729
Al		0.285195818		-2.325602607		-1.848090947
Al		2.030289936		-0.542059768		-0.797889674
Al		-0.340436857		0.307784415		-1.790654946
F		3.630132834		-0.178757662		-0.042462754
F		-0.177823239		-4.034928947		-2.20574827
F		2.109727358		-1.808625664		-2.291355965
F		1.522632064		0.650690277		-2.253891713
F		-1.477260702		1.653808633		-2.188424545
F		-1.136760154		-1.28058312		-1.000266174
F		-0.11775867		-1.00938271		-3.224905395
F		0.499796313		0.400318983		-0.028597802
F		1.072460895		-2.072173668		-0.074254082
