12
-185.77729729
Al		0.285385364		-2.325554803		-1.848501733
Al		2.030203442		-0.542081582		-0.797702224
Al		-0.340539909		0.307758425		-1.79043161
F		3.630231178		-0.178732859		-0.042675886
F		-0.178038754		-4.034983301		-2.205281204
F		2.10989798		-1.808563554		-2.29142309
F		1.522497683		0.650581962		-2.253684758
F		-1.477143531		1.653838184		-2.188678479
F		-1.136645775		-1.280693537		-1.000354731
F		-0.11777637		-1.00924791		-3.22502636
F		0.499718829		0.400373865		-0.028345602
F		1.072405459		-2.072206728		-0.07443659
