12
-185.77729729
Al		0.28557491		-2.325506999		-1.848912519
Al		2.030116948		-0.542103396		-0.797514774
Al		-0.340642961		0.307732435		-1.790208274
F		3.630329522		-0.178708056		-0.042889018
F		-0.178254269		-4.035037655		-2.204814138
F		2.110068602		-1.808501444		-2.291490215
F		1.522363302		0.650473647		-2.253477803
F		-1.47702636		1.653867735		-2.188932413
F		-1.136531396		-1.280803954		-1.000443288
F		-0.11779407		-1.00911311		-3.225147325
F		0.499641345		0.400428747		-0.028093402
F		1.072350023		-2.072239788		-0.074619098
