12
-185.77729729
Al		0.285764456		-2.325459195		-1.849323305
Al		2.030030454		-0.54212521		-0.797327324
Al		-0.340746013		0.307706445		-1.789984938
F		3.630427866		-0.178683253		-0.04310215
F		-0.178469784		-4.035092009		-2.204347072
F		2.110239224		-1.808439334		-2.29155734
F		1.522228921		0.650365332		-2.253270848
F		-1.476909189		1.653897286		-2.189186347
F		-1.136417017		-1.280914371		-1.000531845
F		-0.11781177		-1.00897831		-3.22526829
F		0.499563861		0.400483629		-0.027841202
F		1.072294587		-2.072272848		-0.074801606
