12
-185.77729729
Al		0.285954002		-2.325411391		-1.849734091
Al		2.02994396		-0.542147024		-0.797139874
Al		-0.340849065		0.307680455		-1.789761602
F		3.63052621		-0.17865845		-0.043315282
F		-0.178685299		-4.035146363		-2.203880006
F		2.110409846		-1.808377224		-2.291624465
F		1.52209454		0.650257017		-2.253063893
F		-1.476792018		1.653926837		-2.189440281
F		-1.136302638		-1.281024788		-1.000620402
F		-0.11782947		-1.00884351		-3.225389255
F		0.499486377		0.400538511		-0.027589002
F		1.072239151		-2.072305908		-0.074984114
