12
-185.77729729
Al		0.28652264		-2.325267979		-1.850966449
Al		2.029684478		-0.542212466		-0.796577524
Al		-0.341158221		0.307602485		-1.789091594
F		3.630821242		-0.178584041		-0.043954678
F		-0.179331844		-4.035309425		-2.202478808
F		2.110921712		-1.808190894		-2.29182584
F		1.521691397		0.649932072		-2.252443028
F		-1.476440505		1.65401549		-2.190202083
F		-1.135959501		-1.281356039		-1.000886073
F		-0.11788257		-1.00843911		-3.22575215
F		0.499253925		0.400703157		-0.026832402
F		1.072072843		-2.072405088		-0.075531638
