12
-185.77729729
Al		0.286712186		-2.325220175		-1.851377235
Al		2.029597984		-0.54223428		-0.796390074
Al		-0.341261273		0.307576495		-1.788868258
F		3.630919586		-0.178559238		-0.04416781
F		-0.179547359		-4.035363779		-2.202011742
F		2.111092334		-1.808128784		-2.291892965
F		1.521557016		0.649823757		-2.252236073
F		-1.476323334		1.654045041		-2.190456017
F		-1.135845122		-1.281466456		-1.00097463
F		-0.11790027		-1.00830431		-3.225873115
F		0.499176441		0.400758039		-0.026580202
F		1.072017407		-2.072438148		-0.075714146
