12
-185.77729729
Al		0.276666248		-2.327753787		-1.829605577
Al		2.034182166		-0.541078138		-0.806324924
Al		-0.335799517		0.308953965		-1.800705066
F		3.625707354		-0.179873797		-0.032871814
F		-0.168125064		-4.032483017		-2.22676624
F		2.102049368		-1.811420614		-2.28833534
F		1.528679209		0.655564452		-2.263204688
F		-1.482533397		1.652478838		-2.176997515
F		-1.141907209		-1.275614355		-0.996281109
F		-0.11696217		-1.01544871		-3.21946197
F		0.503283093		0.397849293		-0.039946802
F		1.074955515		-2.070685968		-0.066041222
