12
-185.77729729
Al		0.287091278		-2.325124567		-1.852198807
Al		2.029424996		-0.542277908		-0.796015174
Al		-0.341467377		0.307524515		-1.788421586
F		3.631116274		-0.178509632		-0.044594074
F		-0.179978389		-4.035472487		-2.20107761
F		2.111433578		-1.808004564		-2.292027215
F		1.521288254		0.649607127		-2.251822163
F		-1.476088992		1.654104143		-2.190963885
F		-1.135616364		-1.28168729		-1.001151744
F		-0.11793567		-1.00803471		-3.226115045
F		0.499021473		0.400867803		-0.026075802
F		1.071906535		-2.072504268		-0.076079162
