12
-185.77729729
Al		0.28747037		-2.325028959		-1.853020379
Al		2.029252008		-0.542321536		-0.795640274
Al		-0.341673481		0.307472535		-1.787974914
F		3.631312962		-0.178460026		-0.045020338
F		-0.180409419		-4.035581195		-2.200143478
F		2.111774822		-1.807880344		-2.292161465
F		1.521019492		0.649390497		-2.251408253
F		-1.47585465		1.654163245		-2.191471753
F		-1.135387606		-1.281908124		-1.001328858
F		-0.11797107		-1.00776511		-3.226356975
F		0.498866505		0.400977567		-0.025571402
F		1.071795663		-2.072570388		-0.076444178
