12
-185.77729729
Al		0.288797192		-2.324694331		-1.855895881
Al		2.02864655		-0.542474234		-0.794328124
Al		-0.342394845		0.307290605		-1.786411562
F		3.63200137		-0.178286405		-0.046512262
F		-0.181918024		-4.035961673		-2.196874016
F		2.112969176		-1.807445574		-2.29263134
F		1.520078825		0.648632292		-2.249959568
F		-1.475034453		1.654370102		-2.193249291
F		-1.134586953		-1.282681043		-1.001948757
F		-0.11809497		-1.00682151		-3.22720373
F		0.498324117		0.401361741		-0.023806002
F		1.071407611		-2.072801808		-0.077721734
