12
-185.77729729
Al		0.289176284		-2.324598723		-1.856717453
Al		2.028473562		-0.542517862		-0.793953224
Al		-0.342600949		0.307238625		-1.78596489
F		3.632198058		-0.178236799		-0.046938526
F		-0.182349054		-4.036070381		-2.195939884
F		2.11331042		-1.807321354		-2.29276559
F		1.519810063		0.648415662		-2.249545658
F		-1.474800111		1.654429204		-2.193757159
F		-1.134358195		-1.282901877		-1.002125871
F		-0.11813037		-1.00655191		-3.22744566
F		0.498169149		0.401471505		-0.023301602
F		1.071296739		-2.072867928		-0.07808675
