12
-185.77729729
Al		0.289744922		-2.324455311		-1.857949811
Al		2.02821408		-0.542583304		-0.793390874
Al		-0.342910105		0.307160655		-1.785294882
F		3.63249309		-0.17816239		-0.047577922
F		-0.182995599		-4.036233443		-2.194538686
F		2.113822286		-1.807135024		-2.292966965
F		1.51940692		0.648090717		-2.248924793
F		-1.474448598		1.654517857		-2.194518961
F		-1.134015058		-1.283233128		-1.002391542
F		-0.11818347		-1.00614751		-3.227808555
F		0.497936697		0.401636151		-0.022545002
F		1.071130431		-2.072967108		-0.078634274
