12
-185.77729729
Al		0.27704534		-2.327658179		-1.830427149
Al		2.034009178		-0.541121766		-0.805950024
Al		-0.336005621		0.308901985		-1.800258394
F		3.625904042		-0.179824191		-0.033298078
F		-0.168556094		-4.032591725		-2.225832108
F		2.102390612		-1.811296394		-2.28846959
F		1.528410447		0.655347822		-2.262790778
F		-1.482299055		1.65253794		-2.177505383
F		-1.141678451		-1.275835189		-0.996458223
F		-0.11699757		-1.01517911		-3.2197039
F		0.503128125		0.397959057		-0.039442402
F		1.074844643		-2.070752088		-0.066406238
