12
-185.77729729
Al		0.290692652		-2.324216291		-1.860003741
Al		2.02778161		-0.542692374		-0.792453624
Al		-0.343425365		0.307030705		-1.784178202
F		3.63298481		-0.178038375		-0.048643582
F		-0.184073174		-4.036505213		-2.192203356
F		2.114675396		-1.806824474		-2.29330259
F		1.518735015		0.647549142		-2.247890018
F		-1.473862743		1.654665612		-2.195788631
F		-1.133443163		-1.283785213		-1.002834327
F		-0.11827197		-1.00547351		-3.22841338
F		0.497549277		0.401910561		-0.021284002
F		1.070853251		-2.073132408		-0.079546814
