12
-185.77729729
Al		0.290882198		-2.324168487		-1.860414527
Al		2.027695116		-0.542714188		-0.792266174
Al		-0.343528417		0.307004715		-1.783954866
F		3.633083154		-0.178013572		-0.048856714
F		-0.184288689		-4.036559567		-2.19173629
F		2.114846018		-1.806762364		-2.293369715
F		1.518600634		0.647440827		-2.247683063
F		-1.473745572		1.654695163		-2.196042565
F		-1.133328784		-1.28389563		-1.002922884
F		-0.11828967		-1.00533871		-3.228534345
F		0.497471793		0.401965443		-0.021031802
F		1.070797815		-2.073165468		-0.079729322
