12
-185.77729729
Al		0.291071744		-2.324120683		-1.860825313
Al		2.027608622		-0.542736002		-0.792078724
Al		-0.343631469		0.306978725		-1.78373153
F		3.633181498		-0.177988769		-0.049069846
F		-0.184504204		-4.036613921		-2.191269224
F		2.11501664		-1.806700254		-2.29343684
F		1.518466253		0.647332512		-2.247476108
F		-1.473628401		1.654724714		-2.196296499
F		-1.133214405		-1.284006047		-1.003011441
F		-0.11830737		-1.00520391		-3.22865531
F		0.497394309		0.402020325		-0.020779602
F		1.070742379		-2.073198528		-0.07991183
