12
-185.77729729
Al		0.291450836		-2.324025075		-1.861646885
Al		2.027435634		-0.54277963		-0.791703824
Al		-0.343837573		0.306926745		-1.783284858
F		3.633378186		-0.177939163		-0.04949611
F		-0.184935234		-4.036722629		-2.190335092
F		2.115357884		-1.806576034		-2.29357109
F		1.518197491		0.647115882		-2.247062198
F		-1.473394059		1.654783816		-2.196804367
F		-1.132985647		-1.284226881		-1.003188555
F		-0.11834277		-1.00493431		-3.22889724
F		0.497239341		0.402130089		-0.020275202
F		1.070631507		-2.073264648		-0.080276846
