12
-185.77729729
Al		0.291640382		-2.323977271		-1.862057671
Al		2.02734914		-0.542801444		-0.791516374
Al		-0.343940625		0.306900755		-1.783061522
F		3.63347653		-0.17791436		-0.049709242
F		-0.185150749		-4.036776983		-2.189868026
F		2.115528506		-1.806513924		-2.293638215
F		1.51806311		0.647007567		-2.246855243
F		-1.473276888		1.654813367		-2.197058301
F		-1.132871268		-1.284337298		-1.003277112
F		-0.11836047		-1.00479951		-3.229018205
F		0.497161857		0.402184971		-0.020023002
F		1.070576071		-2.073297708		-0.080459354
