12
-185.77729729
Al		0.29220902		-2.323833859		-1.863290029
Al		2.027089658		-0.542866886		-0.790954024
Al		-0.344249781		0.306822785		-1.782391514
F		3.633771562		-0.177839951		-0.050348638
F		-0.185797294		-4.036940045		-2.188466828
F		2.116040372		-1.806327594		-2.29383959
F		1.517659967		0.646682622		-2.246234378
F		-1.472925375		1.65490202		-2.197820103
F		-1.132528131		-1.284668549		-1.003542783
F		-0.11841357		-1.00439511		-3.2293811
F		0.496929405		0.402349617		-0.019266402
F		1.070409763		-2.073396888		-0.081006878
