12
-185.77729729
Al		0.292588112		-2.323738251		-1.864111601
Al		2.02691667		-0.542910514		-0.790579124
Al		-0.344455885		0.306770805		-1.781944842
F		3.63396825		-0.177790345		-0.050774902
F		-0.186228324		-4.037048753		-2.187532696
F		2.116381616		-1.806203374		-2.29397384
F		1.517391205		0.646465992		-2.245820468
F		-1.472691033		1.654961122		-2.198327971
F		-1.132299373		-1.284889383		-1.003719897
F		-0.11844897		-1.00412551		-3.22962303
F		0.496774437		0.402459381		-0.018762002
F		1.070298891		-2.073463008		-0.081371894
