12
-185.77729729
Al		0.292777658		-2.323690447		-1.864522387
Al		2.026830176		-0.542932328		-0.790391674
Al		-0.344558937		0.306744815		-1.781721506
F		3.634066594		-0.177765542		-0.050988034
F		-0.186443839		-4.037103107		-2.18706563
F		2.116552238		-1.806141264		-2.294040965
F		1.517256824		0.646357677		-2.245613513
F		-1.472573862		1.654990673		-2.198581905
F		-1.132184994		-1.2849998		-1.003808454
F		-0.11846667		-1.00399071		-3.229743995
F		0.496696953		0.402514263		-0.018509802
F		1.070243455		-2.073496068		-0.081554402
