12
-185.77729729
Al		0.29410448		-2.323355819		-1.867397889
Al		2.026224718		-0.543085026		-0.789079524
Al		-0.345280301		0.306562885		-1.780158154
F		3.634755002		-0.177591921		-0.052479958
F		-0.187952444		-4.037483585		-2.183796168
F		2.117746592		-1.805706494		-2.29451084
F		1.516316157		0.645599472		-2.244164828
F		-1.471753665		1.65519753		-2.200359443
F		-1.131384341		-1.285772719		-1.004428353
F		-0.11859057		-1.00304711		-3.23059075
F		0.496154565		0.402898437		-0.016744402
F		1.069855403		-2.073727488		-0.082831958
