12
-185.77729729
Al		0.294294026		-2.323308015		-1.867808675
Al		2.026138224		-0.54310684		-0.788892074
Al		-0.345383353		0.306536895		-1.779934818
F		3.634853346		-0.177567118		-0.05269309
F		-0.188167959		-4.037537939		-2.183329102
F		2.117917214		-1.805644384		-2.294577965
F		1.516181776		0.645491157		-2.243957873
F		-1.471636494		1.655227081		-2.200613377
F		-1.131269962		-1.285883136		-1.00451691
F		-0.11860827		-1.00291231		-3.230711715
F		0.496077081		0.402953319		-0.016492202
F		1.069799967		-2.073760548		-0.083014466
