12
Properties=species:S:1:pos:R:3:forces:R:3 energy=-181.95767770 pbc="F F F"
Al    0.360290672    -2.0321918109999997    -1.753600561    1.107258    3.599224    0.929772
Al    1.83290773    -0.623424456    -0.910160524    0.253473    0.681667    0.196285
Al    -0.400671006    0.034490102999999994    -1.864222383    0.371137    0.763151    0.260059
F    3.283053088    -0.202191816    -0.192009123    1.663816    0.261191    0.798119
F    -0.01831207400000001    -3.519585993    -2.101389236    0.927291    3.471548    0.831866
F    1.998756538    -1.902225976    -2.282725189    -4.228208    -2.238948    -0.106318
F    1.681161495    0.706932439    -2.1349158200000002    0.831391    1.080388    -1.958123
F    -1.3127291220000001    1.531648231    -2.110838711    -0.939061    0.954335    -0.322246
F    -1.100038786    -1.390756652    -1.0309156689999999    2.713805    -3.45254    -1.469075
F    -0.105396074    -1.139905809    -3.186513481    0.96849    -3.892713    2.313386
F    0.6957866960000001    0.45841709799999997    0.00059729800000001    -1.025264    0.612133    2.065632
F    1.020363534    -2.1489798099999997    -0.162344873    -2.644129    -1.839436    -3.539357
