      12
SCF Done            -181.95767770
Al            0.308877672        -2.223940811        -1.799638561
Al            2.078764730        -0.470286456        -0.778894524
Al           -0.322528006         0.387731103        -1.787057383
F             3.758330088        -0.150570816         0.033301877
F            -0.103036074        -3.786080993        -2.171495236
F             1.879368538        -1.980591976        -2.335286189
F             1.586780495         0.738088439        -2.405756820
F            -1.553510122         1.733320231        -2.198471711
F            -1.017978786        -1.497778652        -1.066888669
F            -0.069524074        -1.258575809        -3.122387481
F             0.427651696         0.445752098         0.106316298
F             0.909739534        -2.225135810        -0.233898873
