12
Properties=species:S:1:pos:R:3:forces:R:3 energy=-186.47477283 pbc="F F F"
Al    -0.393374038    1.21040876    -1.813675536    0.092043    -0.295335    8.8e-05
Al    -0.444654514    1.0653270529999999    1.305711636    -0.011672    0.036354    0.002512
Al    -2.942772319    0.046129489000000024    -1.862913742    -0.031213    0.723098    0.099402
F    -3.614618661    0.696314408    -3.7299007079999997    0.030881    -0.417325    -0.185185
F    -1.094304157    -0.658498701    -1.7710764449999998    -0.145457    0.024445    -0.089135
F    -2.1708052870000003    1.8925988029999998    -1.967758383    0.102431    0.147663    0.080217
F    -2.0519013249999998    0.8030459390000001    0.477641424    0.020513    -0.089642    0.001226
F    0.6171003270000001    1.198051443    -0.27298251100000004    -0.009323    0.079265    0.012054
F    -0.334462975    2.753572797    1.9695269469999999    0.021438    -0.002823    0.003293
F    0.384542115    -0.373706258    2.037913045    -0.020588    -0.013135    -0.004134
F    -4.314119292    0.44334167    -0.478303165    -0.048657    -0.260042    0.099542
F    0.761047427    1.183037937    -3.243213629    -0.000395    0.067478    -0.019881
