12
Properties=species:S:1:pos:R:3:forces:R:3 energy=-187.20766178 pbc="F F F"
Al    0.47217299300000004    -0.660910758    1.844238139    0.185389    -0.002304    -0.00122
Al    2.214522565    -1.7536546720000001    -0.422294497    -0.11063    0.098032    0.151086
Al    -0.8788969809999999    -1.857024958    -1.128096343    -0.049517    -0.081119    -0.147619
F    2.9711783069999997    -0.187332993    -1.13422698    -0.053497    0.107743    0.059918
F    -1.769351254    -0.740580288    -2.269071797    -0.052363    -0.100077    -0.083208
F    2.307202195    -3.590025894    -0.14693064299999997    -0.093667    -0.059293    0.080109
F    -1.2507411659999998    -3.619019402    -1.37384512    -0.082378    0.032905    -0.109469
F    2.011192597    -1.506804193    1.387963802    0.034803    0.017954    0.02511
F    0.822081764    -1.4439582819999999    -1.552093665    -0.000384    0.000102    0.001545
F    0.469067952    -1.052286163    3.625295289    0.110442    -0.003304    0.019786
F    0.6167885710000001    1.071660499    1.2758341359999998    0.069785    0.002582    0.011013
F    -0.7433936680000001    -1.517143583    0.707369814    0.042018    -0.013219    -0.00705
