      12
SCF Done            -170.69722399
Al            0.377072995        -0.598962678         1.744412117
Al            2.336046563        -1.776451654        -0.497444490
Al           -0.900148982        -1.842968940        -1.017129336
F             3.429123311        -0.444861993        -1.070573003
F            -1.866376251        -0.617016289        -1.940147821
F             2.671985187        -3.562768877        -0.443620592
F            -1.274692173        -3.614266385        -1.133963069
F             1.932242596        -1.409257132         1.243819800
F             0.828041764        -1.508541282        -1.489822665
F             0.174821951        -1.171515041         3.452870281
F             0.450210579         1.135720566         1.204990072
F            -0.917495669        -1.456387521         0.773017812
