      12
SCF Done            -185.22543258
Al            0.284034872        -2.325895911        -1.845573761
Al            1.951517730        -0.561926256        -0.627173324
Al           -0.260502806         0.327944203        -1.963887583
F             3.522758488        -0.205838216         0.190239877
F            -0.156365874        -4.029517193        -2.252251336
F             1.905817438        -1.525085676        -2.425403989
F             1.538773495         0.612029739        -2.274501220
F            -1.391343722         1.675477431        -2.374625011
F            -0.819394486        -1.194590852        -0.747305669
F            -0.507746674        -1.113690609        -3.320479381
F             0.501381896         0.443450598        -0.046405502
F             1.331266134        -2.341869110        -0.059175373
