12
-185.77729729
Al		0.27041123		-2.329331319		-1.816049639
Al		2.037036468		-0.540358276		-0.812510774
Al		-0.332398801		0.309811635		-1.808075154
F		3.622462002		-0.180692296		-0.025838458
F		-0.161013069		-4.030689335		-2.242179418
F		2.096418842		-1.813470244		-2.286120215
F		1.533113782		0.659138847		-2.270034203
F		-1.48640004		1.651503655		-2.168617693
F		-1.145681716		-1.271970594		-0.993358728
F		-0.11637807		-1.01989711		-3.215470125
F		0.505840065		0.396038187		-0.048269402
F		1.076784903		-2.069594988		-0.060018458
