12
-185.77729729
Al		0.270221684		-2.329379123		-1.815638853
Al		2.037122962		-0.540336462		-0.812698224
Al		-0.332295749		0.309837625		-1.80829849
F		3.622363658		-0.180717099		-0.025625326
F		-0.160797554		-4.030634981		-2.242646484
F		2.09624822		-1.813532354		-2.28605309
F		1.533248163		0.659247162		-2.270241158
F		-1.486517211		1.651474104		-2.168363759
F		-1.145796095		-1.271860177		-0.993270171
F		-0.11636037		-1.02003191		-3.21534916
F		0.505917549		0.395983305		-0.048521602
F		1.076840339		-2.069561928		-0.05983595
