12
-185.77729729
Al		0.274960334		-2.328184023		-1.825908503
Al		2.034960612		-0.540881812		-0.808011974
Al		-0.334872049		0.309187875		-1.80271509
F		3.624822258		-0.180097024		-0.030953626
F		-0.166185429		-4.031993831		-2.230969834
F		2.10051377		-1.811979604		-2.287731215
F		1.529888638		0.656539287		-2.265067283
F		-1.483587936		1.652212879		-2.174712109
F		-1.14293662		-1.274620602		-0.995484096
F		-0.11680287		-1.01666191		-3.218373285
F		0.503980449		0.397355355		-0.042216602
F		1.075454439		-2.070388428		-0.06439865
