12
-185.77729729
Al		0.2694635		-2.329570339		-1.813995709
Al		2.037468938		-0.540249206		-0.813448024
Al		-0.331883541		0.309941585		-1.809191834
F		3.621970282		-0.180816311		-0.024772798
F		-0.159935494		-4.030417565		-2.244514748
F		2.095565732		-1.813780794		-2.28578459
F		1.533785687		0.659680422		-2.271068978
F		-1.486985895		1.6513559		-2.167348023
F		-1.146253611		-1.271418509		-0.992915943
F		-0.11628957		-1.02057111		-3.2148653
F		0.506227485		0.395763777		-0.049530402
F		1.077062083		-2.069429688		-0.059105918
