12
-185.77729729
Al		0.269273954		-2.329618143		-1.813584923
Al		2.037555432		-0.540227392		-0.813635474
Al		-0.331780489		0.309967575		-1.80941517
F		3.621871938		-0.180841114		-0.024559666
F		-0.159719979		-4.030363211		-2.244981814
F		2.09539511		-1.813842904		-2.285717465
F		1.533920068		0.659788737		-2.271275933
F		-1.487103066		1.651326349		-2.167094089
F		-1.14636799		-1.271308092		-0.992827386
F		-0.11627187		-1.02070591		-3.214744335
F		0.506304969		0.395708895		-0.049782602
F		1.077117519		-2.069396628		-0.05892341
