12
-185.77729729
Al		0.274770788		-2.328231827		-1.825497717
Al		2.035047106		-0.540859998		-0.808199424
Al		-0.334768997		0.309213865		-1.802938426
F		3.624723914		-0.180121827		-0.030740494
F		-0.165969914		-4.031939477		-2.2314369
F		2.100343148		-1.812041714		-2.28766409
F		1.530023019		0.656647602		-2.265274238
F		-1.483705107		1.652183328		-2.174458175
F		-1.143050999		-1.274510185		-0.995395539
F		-0.11678517		-1.01679671		-3.21825232
F		0.504057933		0.397300473		-0.042468802
F		1.075509875		-2.070355368		-0.064216142
