12
-185.77729729
Al		0.267947132		-2.329952771		-1.810709421
Al		2.03816089		-0.540074694		-0.814947624
Al		-0.331059125		0.310149505		-1.810978522
F		3.62118353		-0.181014735		-0.023067742
F		-0.158211374		-4.029982733		-2.248251276
F		2.094200756		-1.814277674		-2.28524759
F		1.534860735		0.660546942		-2.272724618
F		-1.487923263		1.651119492		-2.165316551
F		-1.147168643		-1.270535173		-0.992207487
F		-0.11614797		-1.02164951		-3.21389758
F		0.506847357		0.395324721		-0.051548002
F		1.077505571		-2.069165208		-0.057645854
