12
-185.77729729
Al		0.267378494		-2.330096183		-1.809477063
Al		2.038420372		-0.540009252		-0.815509974
Al		-0.330749969		0.310227475		-1.81164853
F		3.620888498		-0.181089144		-0.022428346
F		-0.157564829		-4.029819671		-2.249652474
F		2.09368889		-1.814464004		-2.285046215
F		1.535263878		0.660871887		-2.273345483
F		-1.488274776		1.651030839		-2.164554749
F		-1.14751178		-1.270203922		-0.991941816
F		-0.11609487		-1.02205391		-3.213534685
F		0.507079809		0.395160075		-0.052304602
F		1.077671879		-2.069066028		-0.05709833
