12
-185.77729729
Al		0.267188948		-2.330143987		-1.809066277
Al		2.038506866		-0.539987438		-0.815697424
Al		-0.330646917		0.310253465		-1.811871866
F		3.620790154		-0.181113947		-0.022215214
F		-0.157349314		-4.029765317		-2.25011954
F		2.093518268		-1.814526114		-2.28497909
F		1.535398259		0.660980202		-2.273552438
F		-1.488391947		1.651001288		-2.164300815
F		-1.147626159		-1.270093505		-0.991853259
F		-0.11607717		-1.02218871		-3.21341372
F		0.507157293		0.395105193		-0.052556802
F		1.077727315		-2.069032968		-0.056915822
