12
-185.77729729
Al		0.266809856		-2.330239595		-1.808244705
Al		2.038679854		-0.53994381		-0.816072324
Al		-0.330440813		0.310305445		-1.812318538
F		3.620593466		-0.181163553		-0.02178895
F		-0.156918284		-4.029656609		-2.251053672
F		2.093177024		-1.814650334		-2.28484484
F		1.535667021		0.661196832		-2.273966348
F		-1.488626289		1.650942186		-2.163792947
F		-1.147854917		-1.269872671		-0.991676145
F		-0.11604177		-1.02245831		-3.21317179
F		0.507312261		0.394995429		-0.053061202
F		1.077838187		-2.068966848		-0.056550806
