12
-185.77729729
Al		0.266051672		-2.330430811		-1.806601561
Al		2.03902583		-0.539856554		-0.816822124
Al		-0.330028605		0.310409405		-1.813211882
F		3.62020009		-0.181262765		-0.020936422
F		-0.156056224		-4.029439193		-2.252921936
F		2.092494536		-1.814898774		-2.28457634
F		1.536204545		0.661630092		-2.274794168
F		-1.489094973		1.650823982		-2.162777211
F		-1.148312433		-1.269431003		-0.991321917
F		-0.11597097		-1.02299751		-3.21268793
F		0.507622197		0.394775901		-0.054070002
F		1.078059931		-2.068834608		-0.055820774
