12
-185.77729729
Al		0.26567258		-2.330526419		-1.805779989
Al		2.039198818		-0.539812926		-0.817197024
Al		-0.329822501		0.310461385		-1.813658554
F		3.620003402		-0.181312371		-0.020510158
F		-0.155625194		-4.029330485		-2.253856068
F		2.092153292		-1.815022994		-2.28444209
F		1.536473307		0.661846722		-2.275208078
F		-1.489329315		1.65076488		-2.162269343
F		-1.148541191		-1.269210169		-0.991144803
F		-0.11593557		-1.02326711		-3.212446
F		0.507777165		0.394666137		-0.054574402
F		1.078170803		-2.068768488		-0.055455758
