12
-185.77729729
Al		0.265483034		-2.330574223		-1.805369203
Al		2.039285312		-0.539791112		-0.817384474
Al		-0.329719449		0.310487375		-1.81388189
F		3.619905058		-0.181337174		-0.020297026
F		-0.155409679		-4.029276131		-2.254323134
F		2.09198267		-1.815085104		-2.284374965
F		1.536607688		0.661955037		-2.275415033
F		-1.489446486		1.650735329		-2.162015409
F		-1.14865557		-1.269099752		-0.991056246
F		-0.11591787		-1.02340191		-3.212325035
F		0.507854649		0.394611255		-0.054826602
F		1.078226239		-2.068735428		-0.05527325
