12
-185.77729729
Al		0.265103942		-2.330669831		-1.804547631
Al		2.0394583		-0.539747484		-0.817759374
Al		-0.329513345		0.310539355		-1.814328562
F		3.61970837		-0.18138678		-0.019870762
F		-0.154978649		-4.029167423		-2.255257266
F		2.091641426		-1.815209324		-2.284240715
F		1.53687645		0.662171667		-2.275828943
F		-1.489680828		1.650676227		-2.161507541
F		-1.148884328		-1.268878918		-0.990879132
F		-0.11588247		-1.02367151		-3.212083105
F		0.508009617		0.394501491		-0.055331002
F		1.078337111		-2.068669308		-0.054908234
