12
-185.77729729
Al		0.263398028		-2.331100067		-1.800850557
Al		2.040236746		-0.539551158		-0.819446424
Al		-0.328585877		0.310773265		-1.816338586
F		3.618823274		-0.181610007		-0.017952574
F		-0.153039014		-4.028678237		-2.25946086
F		2.090105828		-1.815768314		-2.28363659
F		1.538085879		0.663146502		-2.277691538
F		-1.490735367		1.650410268		-2.159222135
F		-1.149913739		-1.267885165		-0.990082119
F		-0.11572317		-1.02488471		-3.21099442
F		0.508706973		0.394007553		-0.057600802
F		1.078836035		-2.068371768		-0.053265662
