12
-185.77729729
Al		0.263208482		-2.331147871		-1.800439771
Al		2.04032324		-0.539529344		-0.819633874
Al		-0.328482825		0.310799255		-1.816561922
F		3.61872493		-0.18163481		-0.017739442
F		-0.152823499		-4.028623883		-2.259927926
F		2.089935206		-1.815830424		-2.283569465
F		1.53822026		0.663254817		-2.277898493
F		-1.490852538		1.650380717		-2.158968201
F		-1.150028118		-1.267774748		-0.989993562
F		-0.11570547		-1.02501951		-3.210873455
F		0.508784457		0.393952671		-0.057853002
F		1.078891471		-2.068338708		-0.053083154
