12
-185.77729729
Al		0.261692114		-2.331530303		-1.797153483
Al		2.041015192		-0.539354832		-0.821133474
Al		-0.327658409		0.311007175		-1.81834861
F		3.617938178		-0.181833234		-0.016034386
F		-0.151099379		-4.028189051		-2.263664454
F		2.08857023		-1.816327304		-2.283032465
F		1.539295308		0.664121337		-2.279554133
F		-1.491789906		1.650144309		-2.156936729
F		-1.15094315		-1.266891412		-0.989285106
F		-0.11556387		-1.02609791		-3.209905735
F		0.509404329		0.393513615		-0.059870602
F		1.079334959		-2.068074228		-0.05162309
