12
-185.77729729
Al		0.260554838		-2.331817127		-1.794688767
Al		2.041534156		-0.539223948		-0.822258174
Al		-0.327040097		0.311163115		-1.819688626
F		3.617348114		-0.181982052		-0.014755594
F		-0.149806289		-4.027862927		-2.26646685
F		2.087546498		-1.816699964		-2.282629715
F		1.540101594		0.664771227		-2.280795863
F		-1.492492932		1.649967003		-2.155413125
F		-1.151629424		-1.26622891		-0.988753764
F		-0.11545767		-1.02690671		-3.209179945
F		0.509869233		0.393184323		-0.061383802
F		1.079667575		-2.067875868		-0.050528042
