12
-185.77729729
Al		0.260175746		-2.331912735		-1.793867195
Al		2.041707144		-0.53918032		-0.822633074
Al		-0.326833993		0.311215095		-1.820135298
F		3.617151426		-0.182031658		-0.01432933
F		-0.149375259		-4.027754219		-2.267400982
F		2.087205254		-1.816824184		-2.282495465
F		1.540370356		0.664987857		-2.281209773
F		-1.492727274		1.649907901		-2.154905257
F		-1.151858182		-1.266008076		-0.98857665
F		-0.11542227		-1.02717631		-3.208938015
F		0.510024201		0.393074559		-0.061888202
F		1.079778447		-2.067809748		-0.050163026
