12
-185.77729729
Al		0.259607108		-2.332056147		-1.792634837
Al		2.041966626		-0.539114878		-0.823195424
Al		-0.326524837		0.311293065		-1.820805306
F		3.616856394		-0.182106067		-0.013689934
F		-0.148728714		-4.027591157		-2.26880218
F		2.086693388		-1.817010514		-2.28229409
F		1.540773499		0.665312802		-2.281830638
F		-1.493078787		1.649819248		-2.154143455
F		-1.152201319		-1.265676825		-0.988310979
F		-0.11536917		-1.02758071		-3.20857512
F		0.510256653		0.392909913		-0.062644802
F		1.079944755		-2.067710568		-0.049615502
