12
-185.77729729
Al		0.259417562		-2.332103951		-1.792224051
Al		2.04205312		-0.539093064		-0.823382874
Al		-0.326421785		0.311319055		-1.821028642
F		3.61675805		-0.18213087		-0.013476802
F		-0.148513199		-4.027536803		-2.269269246
F		2.086522766		-1.817072624		-2.282226965
F		1.54090788		0.665421117		-2.282037593
F		-1.493195958		1.649789697		-2.153889521
F		-1.152315698		-1.265566408		-0.988222422
F		-0.11535147		-1.02771551		-3.208454155
F		0.510334137		0.392855031		-0.062897002
F		1.080000191		-2.067677508		-0.049432994
