12
-185.77729729
Al		0.25903847		-2.332199559		-1.791402479
Al		2.042226108		-0.539049436		-0.823757774
Al		-0.326215681		0.311371035		-1.821475314
F		3.616561362		-0.182180476		-0.013050538
F		-0.148082169		-4.027428095		-2.270203378
F		2.086181522		-1.817196844		-2.282092715
F		1.541176642		0.665637747		-2.282451503
F		-1.4934303		1.649730595		-2.153381653
F		-1.152544456		-1.265345574		-0.988045308
F		-0.11531607		-1.02798511		-3.208212225
F		0.510489105		0.392745267		-0.063401402
F		1.080111063		-2.067611388		-0.049067978
