12
-185.77729729
Al		0.273823058		-2.328470847		-1.823443787
Al		2.035479576		-0.540750928		-0.809136674
Al		-0.334253737		0.309343815		-1.804055106
F		3.624232194		-0.180245842		-0.029674834
F		-0.164892339		-4.031667707		-2.23377223
F		2.099490038		-1.812352264		-2.287328465
F		1.530694924		0.657189177		-2.266309013
F		-1.484290962		1.652035573		-2.173188505
F		-1.143622894		-1.2739581		-0.994952754
F		-0.11669667		-1.01747071		-3.217647495
F		0.504445353		0.397026063		-0.043729802
F		1.075787055		-2.070190068		-0.063303602
