12
-185.77729729
Al		0.257522102		-2.332581991		-1.788116191
Al		2.04291806		-0.538874924		-0.825257374
Al		-0.325391265		0.311578955		-1.823262002
F		3.61577461		-0.1823789		-0.011345482
F		-0.146358049		-4.026993263		-2.273939906
F		2.084816546		-1.817693724		-2.281555715
F		1.54225169		0.666504267		-2.284107143
F		-1.494367668		1.649494187		-2.151350181
F		-1.153459488		-1.264462238		-0.987336852
F		-0.11517447		-1.02906351		-3.207244505
F		0.511108977		0.392306211		-0.065419002
F		1.080554551		-2.067346908		-0.047607914
