12
-185.77729729
Al		0.257332556		-2.332629795		-1.787705405
Al		2.043004554		-0.53885311		-0.825444824
Al		-0.325288213		0.311604945		-1.823485338
F		3.615676266		-0.182403703		-0.01113235
F		-0.146142534		-4.026938909		-2.274406972
F		2.084645924		-1.817755834		-2.28148859
F		1.542386071		0.666612582		-2.284314098
F		-1.494484839		1.649464636		-2.151096247
F		-1.153573867		-1.264351821		-0.987248295
F		-0.11515677		-1.02919831		-3.20712354
F		0.511186461		0.392251329		-0.065671202
F		1.080609987		-2.067313848		-0.047425406
