12
-185.77729729
Al		0.277613978		-2.327514767		-1.831659507
Al		2.033749696		-0.541187208		-0.805387674
Al		-0.336314777		0.308824015		-1.799588386
F		3.626199074		-0.179749782		-0.033937474
F		-0.169202639		-4.032754787		-2.22443091
F		2.102902478		-1.811110064		-2.288670965
F		1.528007304		0.655022877		-2.262169913
F		-1.481947542		1.652626593		-2.178267185
F		-1.141335314		-1.27616644		-0.996723894
F		-0.11705067		-1.01477471		-3.220066795
F		0.502895673		0.398123703		-0.038685802
F		1.074678335		-2.070851268		-0.066953762
