12
-185.77729729
Al		0.278182616		-2.327371355		-1.832891865
Al		2.033490214		-0.54125265		-0.804825324
Al		-0.336623933		0.308746045		-1.798918378
F		3.626494106		-0.179675373		-0.03457687
F		-0.169849184		-4.032917849		-2.223029712
F		2.103414344		-1.810923734		-2.28887234
F		1.527604161		0.654697932		-2.261549048
F		-1.481596029		1.652715246		-2.179028987
F		-1.140992177		-1.276497691		-0.996989565
F		-0.11710377		-1.01437031		-3.22042969
F		0.502663221		0.398288349		-0.037929202
F		1.074512027		-2.070950448		-0.067501286
