12
-185.77729729
Al		0.278372162		-2.327323551		-1.833302651
Al		2.03340372		-0.541274464		-0.804637874
Al		-0.336726985		0.308720055		-1.798695042
F		3.62659245		-0.17965057		-0.034790002
F		-0.170064699		-4.032972203		-2.222562646
F		2.103584966		-1.810861624		-2.288939465
F		1.52746978		0.654589617		-2.261342093
F		-1.481478858		1.652744797		-2.179282921
F		-1.140877798		-1.276608108		-0.997078122
F		-0.11712147		-1.01423551		-3.220550655
F		0.502585737		0.398343231		-0.037677002
F		1.074456591		-2.070983508		-0.067683794
