12
-185.77729729
Al		0.279130346		-2.327132335		-1.834945795
Al		2.033057744		-0.54136172		-0.803888074
Al		-0.337139193		0.308616095		-1.797801698
F		3.626985826		-0.179551358		-0.03564253
F		-0.170926759		-4.033189619		-2.220694382
F		2.104267454		-1.810613184		-2.289207965
F		1.526932256		0.654156357		-2.260514273
F		-1.481010174		1.652863001		-2.180298657
F		-1.140420282		-1.277049776		-0.99743235
F		-0.11719227		-1.01369631		-3.221034515
F		0.502275801		0.398562759		-0.036668202
F		1.074234847		-2.071115748		-0.068413826
