12
-185.77729729
Al		0.279698984		-2.326988923		-1.836178153
Al		2.032798262		-0.541427162		-0.803325724
Al		-0.337448349		0.308538125		-1.79713169
F		3.627280858		-0.179476949		-0.036281926
F		-0.171573304		-4.033352681		-2.219293184
F		2.10477932		-1.810426854		-2.28940934
F		1.526529113		0.653831412		-2.259893408
F		-1.480658661		1.652951654		-2.181060459
F		-1.140077145		-1.277381027		-0.997698021
F		-0.11724537		-1.01329191		-3.22139741
F		0.502043349		0.398727405		-0.035911602
F		1.074068539		-2.071214928		-0.06896135
