12
-185.77729729
Al		0.280078076		-2.326893315		-1.836999725
Al		2.032625274		-0.54147079		-0.802950824
Al		-0.337654453		0.308486145		-1.796685018
F		3.627477546		-0.179427343		-0.03670819
F		-0.172004334		-4.033461389		-2.218359052
F		2.105120564		-1.810302634		-2.28954359
F		1.526260351		0.653614782		-2.259479498
F		-1.480424319		1.653010756		-2.181568327
F		-1.139848387		-1.277601861		-0.997875135
F		-0.11728077		-1.01302231		-3.22163934
F		0.501888381		0.398837169		-0.035407202
F		1.073957667		-2.071281048		-0.069326366
