12
-185.77729729
Al		0.27609761		-2.327897199		-1.828373219
Al		2.034441648		-0.541012696		-0.806887274
Al		-0.335490361		0.309031935		-1.801375074
F		3.625412322		-0.179948206		-0.032232418
F		-0.167478519		-4.032319955		-2.228167438
F		2.101537502		-1.811606944		-2.288133965
F		1.529082352		0.655889397		-2.263825553
F		-1.48288491		1.652390185		-2.176235713
F		-1.142250346		-1.275283104		-0.996015438
F		-0.11690907		-1.01585311		-3.219099075
F		0.503515545		0.397684647		-0.040703402
F		1.075121823		-2.070586788		-0.065493698
