12
-185.77729729
Al		0.281594444		-2.326510883		-1.840286013
Al		2.031933322		-0.541645302		-0.801451224
Al		-0.338478869		0.308278225		-1.79489833
F		3.628264298		-0.179228919		-0.038413246
F		-0.173728454		-4.033896221		-2.214622524
F		2.10648554		-1.809805754		-2.29008059
F		1.525185303		0.652748262		-2.257823858
F		-1.479486951		1.653247164		-2.183599799
F		-1.138933355		-1.278485197		-0.998583591
F		-0.11742237		-1.01194391		-3.22260706
F		0.501268509		0.399276225		-0.033389602
F		1.073514179		-2.071545528		-0.07078643
