12
-185.77729729
Al		0.28178399		-2.326463079		-1.840696799
Al		2.031846828		-0.541667116		-0.801263774
Al		-0.338581921		0.308252235		-1.794674994
F		3.628362642		-0.179204116		-0.038626378
F		-0.173943969		-4.033950575		-2.214155458
F		2.106656162		-1.809743644		-2.290147715
F		1.525050922		0.652639947		-2.257616903
F		-1.47936978		1.653276715		-2.183853733
F		-1.138818976		-1.278595614		-0.998672148
F		-0.11744007		-1.01180911		-3.222728025
F		0.501191025		0.399331107		-0.033137402
F		1.073458743		-2.071578588		-0.070968938
