12
-185.77729729
Al		0.282163082		-2.326367471		-1.841518371
Al		2.03167384		-0.541710744		-0.800888874
Al		-0.338788025		0.308200255		-1.794228322
F		3.62855933		-0.17915451		-0.039052642
F		-0.174374999		-4.034059283		-2.213221326
F		2.106997406		-1.809619424		-2.290281965
F		1.52478216		0.652423317		-2.257202993
F		-1.479135438		1.653335817		-2.184361601
F		-1.138590218		-1.278816448		-0.998849262
F		-0.11747547		-1.01153951		-3.222969955
F		0.501036057		0.399440871		-0.032633002
F		1.073347871		-2.071644708		-0.071333954
