12
-185.77729729
Al		0.28273172		-2.326224059		-1.842750729
Al		2.031414358		-0.541776186		-0.800326524
Al		-0.339097181		0.308122285		-1.793558314
F		3.628854362		-0.179080101		-0.039692038
F		-0.175021544		-4.034222345		-2.211820128
F		2.107509272		-1.809433094		-2.29048334
F		1.524379017		0.652098372		-2.256582128
F		-1.478783925		1.65342447		-2.185123403
F		-1.138247081		-1.279147699		-0.999114933
F		-0.11752857		-1.01113511		-3.22333285
F		0.500803605		0.399605517		-0.031876402
F		1.073181563		-2.071743888		-0.071881478
