12
-185.77729729
Al		0.276287156		-2.327849395		-1.828784005
Al		2.034355154		-0.54103451		-0.806699824
Al		-0.335593413		0.309005945		-1.801151738
F		3.625510666		-0.179923403		-0.03244555
F		-0.167694034		-4.032374309		-2.227700372
F		2.101708124		-1.811544834		-2.28820109
F		1.528947971		0.655781082		-2.263618598
F		-1.482767739		1.652419736		-2.176489647
F		-1.142135967		-1.275393521		-0.996103995
F		-0.11692677		-1.01571831		-3.21922004
F		0.503438061		0.397739529		-0.040451202
F		1.075066387		-2.070619848		-0.065676206
