12
-185.77729729
Al		0.283300358		-2.326080647		-1.843983087
Al		2.031154876		-0.541841628		-0.799764174
Al		-0.339406337		0.308044315		-1.792888306
F		3.629149394		-0.179005692		-0.040331434
F		-0.175668089		-4.034385407		-2.21041893
F		2.108021138		-1.809246764		-2.290684715
F		1.523975874		0.651773427		-2.255961263
F		-1.478432412		1.653513123		-2.185885205
F		-1.137903944		-1.27947895		-0.999380604
F		-0.11758167		-1.01073071		-3.223695745
F		0.500571153		0.399770163		-0.031119802
F		1.073015255		-2.071843068		-0.072429002
