12
-185.77729729
Al		0.284058542		-2.325889431		-1.845626231
Al		2.0308089		-0.541928884		-0.799014374
Al		-0.339818545		0.307940355		-1.791994962
F		3.62954277		-0.17890648		-0.041183962
F		-0.176530149		-4.034602823		-2.208550666
F		2.108703626		-1.808998324		-2.290953215
F		1.52343835		0.651340167		-2.255133443
F		-1.477963728		1.653631327		-2.186900941
F		-1.137446428		-1.279920618		-0.999734832
F		-0.11765247		-1.01019151		-3.224179605
F		0.500261217		0.399989691		-0.030111002
F		1.072793511		-2.071975308		-0.073159034
