12
-185.77729729
Al		0.286901732		-2.325172371		-1.851788021
Al		2.02951149		-0.542256094		-0.796202624
Al		-0.341364325		0.307550505		-1.788644922
F		3.63101793		-0.178534435		-0.044380942
F		-0.179762874		-4.035418133		-2.201544676
F		2.111262956		-1.808066674		-2.29196009
F		1.521422635		0.649715442		-2.252029118
F		-1.476206163		1.654074592		-2.190709951
F		-1.135730743		-1.281576873		-1.001063187
F		-0.11791797		-1.00816951		-3.22599408
F		0.499098957		0.400812921		-0.026328002
F		1.071961971		-2.072471208		-0.075896654
