12
-185.77729729
Al		0.287280824		-2.325076763		-1.852609593
Al		2.029338502		-0.542299722		-0.795827724
Al		-0.341570429		0.307498525		-1.78819825
F		3.631214618		-0.178484829		-0.044807206
F		-0.180193904		-4.035526841		-2.200610544
F		2.1116042		-1.807942454		-2.29209434
F		1.521153873		0.649498812		-2.251615208
F		-1.475971821		1.654133694		-2.191217819
F		-1.135501985		-1.281797707		-1.001240301
F		-0.11795337		-1.00789991		-3.22623601
F		0.498943989		0.400922685		-0.025823602
F		1.071851099		-2.072537328		-0.07626167
