12
-185.77729729
Al		0.2884181		-2.324789939		-1.855074309
Al		2.028819538		-0.542430606		-0.794703024
Al		-0.342188741		0.307342585		-1.786858234
F		3.631804682		-0.178336011		-0.046085998
F		-0.181486994		-4.035852965		-2.197808148
F		2.112627932		-1.807569794		-2.29249709
F		1.520347587		0.648848922		-2.250373478
F		-1.475268795		1.654311		-2.192741423
F		-1.134815711		-1.282460209		-1.001771643
F		-0.11805957		-1.00709111		-3.2269618
F		0.498479085		0.401251977		-0.024310402
F		1.071518483		-2.072735688		-0.077356718
