12
-185.77729729
Al		0.276855794		-2.327705983		-1.830016363
Al		2.034095672		-0.541099952		-0.806137474
Al		-0.335902569		0.308927975		-1.80048173
F		3.625805698		-0.179848994		-0.033084946
F		-0.168340579		-4.032537371		-2.226299174
F		2.10221999		-1.811358504		-2.288402465
F		1.528544828		0.655456137		-2.262997733
F		-1.482416226		1.652508389		-2.177251449
F		-1.14179283		-1.275724772		-0.996369666
F		-0.11697987		-1.01531391		-3.219582935
F		0.503205609		0.397904175		-0.039694602
F		1.074900079		-2.070719028		-0.06622373
