12
-185.77729729
Al		0.288986738		-2.324646527		-1.856306667
Al		2.028560056		-0.542496048		-0.794140674
Al		-0.342497897		0.307264615		-1.786188226
F		3.632099714		-0.178261602		-0.046725394
F		-0.182133539		-4.036016027		-2.19640695
F		2.113139798		-1.807383464		-2.292698465
F		1.519944444		0.648523977		-2.249752613
F		-1.474917282		1.654399653		-2.193503225
F		-1.134472574		-1.28279146		-1.002037314
F		-0.11811267		-1.00668671		-3.227324695
F		0.498246633		0.401416623		-0.023553802
F		1.071352175		-2.072834868		-0.077904242
