12
-185.77729729
Al		0.290124014		-2.324359703		-1.858771383
Al		2.028041092		-0.542626932		-0.793015974
Al		-0.343116209		0.307108675		-1.78484821
F		3.632689778		-0.178112784		-0.048004186
F		-0.183426629		-4.036342151		-2.193604554
F		2.11416353		-1.807010804		-2.293101215
F		1.519138158		0.647874087		-2.248510883
F		-1.474214256		1.654576959		-2.195026829
F		-1.1337863		-1.283453962		-1.002568656
F		-0.11821887		-1.00587791		-3.228050485
F		0.497781729		0.401745915		-0.022040602
F		1.071019559		-2.073033228		-0.07899929
