12
-185.77729729
Al		0.290503106		-2.324264095		-1.859592955
Al		2.027868104		-0.54267056		-0.792641074
Al		-0.343322313		0.307056695		-1.784401538
F		3.632886466		-0.178063178		-0.04843045
F		-0.183857659		-4.036450859		-2.192670422
F		2.114504774		-1.806886584		-2.293235465
F		1.518869396		0.647657457		-2.248096973
F		-1.473979914		1.654636061		-2.195534697
F		-1.133557542		-1.283674796		-1.00274577
F		-0.11825427		-1.00560831		-3.228292415
F		0.497626761		0.401855679		-0.021536202
F		1.070908687		-2.073099348		-0.079364306
