12
-185.77729729
Al		0.29126129		-2.324072879		-1.861236099
Al		2.027522128		-0.542757816		-0.791891274
Al		-0.343734521		0.306952735		-1.783508194
F		3.633279842		-0.177963966		-0.049282978
F		-0.184719719		-4.036668275		-2.190802158
F		2.115187262		-1.806638144		-2.293503965
F		1.518331872		0.647224197		-2.247269153
F		-1.47351123		1.654754265		-2.196550433
F		-1.133100026		-1.284116464		-1.003099998
F		-0.11832507		-1.00506911		-3.228776275
F		0.497316825		0.402075207		-0.020527402
F		1.070686943		-2.073231588		-0.080094338
