12
-185.77729729
Al		0.277234886		-2.327610375		-1.830837935
Al		2.033922684		-0.54114358		-0.805762574
Al		-0.336108673		0.308875995		-1.800035058
F		3.626002386		-0.179799388		-0.03351121
F		-0.168771609		-4.032646079		-2.225365042
F		2.102561234		-1.811234284		-2.288536715
F		1.528276066		0.655239507		-2.262583823
F		-1.482181884		1.652567491		-2.177759317
F		-1.141564072		-1.275945606		-0.99654678
F		-0.11701527		-1.01504431		-3.219824865
F		0.503050641		0.398013939		-0.039190202
F		1.074789207		-2.070785148		-0.066588746
