12
-185.77729729
Al		0.29315675		-2.323594839		-1.865343959
Al		2.026657188		-0.542975956		-0.790016774
Al		-0.344765041		0.306692835		-1.781274834
F		3.634263282		-0.177715936		-0.051414298
F		-0.186874869		-4.037211815		-2.186131498
F		2.116893482		-1.806017044		-2.294175215
F		1.516988062		0.646141047		-2.245199603
F		-1.47233952		1.655049775		-2.199089773
F		-1.131956236		-1.285220634		-1.003985568
F		-0.11850207		-1.00372111		-3.229985925
F		0.496541985		0.402624027		-0.018005402
F		1.070132583		-2.073562188		-0.081919418
