12
-185.77729729
Al		0.293535842		-2.323499231		-1.866165531
Al		2.0264842		-0.543019584		-0.789641874
Al		-0.344971145		0.306640855		-1.780828162
F		3.63445997		-0.17766633		-0.051840562
F		-0.187305899		-4.037320523		-2.185197366
F		2.117234726		-1.805892824		-2.294309465
F		1.5167193		0.645924417		-2.244785693
F		-1.472105178		1.655108877		-2.199597641
F		-1.131727478		-1.285441468		-1.004162682
F		-0.11853747		-1.00345151		-3.230227855
F		0.496387017		0.402733791		-0.017501002
F		1.070021711		-2.073628308		-0.082284434
