12
-185.77729729
Al		0.293914934		-2.323403623		-1.866987103
Al		2.026311212		-0.543063212		-0.789266974
Al		-0.345177249		0.306588875		-1.78038149
F		3.634656658		-0.177616724		-0.052266826
F		-0.187736929		-4.037429231		-2.184263234
F		2.11757597		-1.805768604		-2.294443715
F		1.516450538		0.645707787		-2.244371783
F		-1.471870836		1.655167979		-2.200105509
F		-1.13149872		-1.285662302		-1.004339796
F		-0.11857287		-1.00318191		-3.230469785
F		0.496232049		0.402843555		-0.016996602
F		1.069910839		-2.073694428		-0.08264945
