12
Properties=species:S:1:pos:R:3:forces:R:3 energy=-185.88462287 pbc="F F F"
Al    -1.769778661    2.44593322    -1.3992216910000002    0.73636    -0.304041    -0.713647
Al    -0.710979555    0.084498806    -2.348061174    -1.94288    0.852858    1.143481
Al    -2.2666585759999998    -0.535815318    -0.49365583700000004    0.251336    -1.377005    -0.4363
F    -0.776063541    3.508242036    -0.304939457    0.075869    0.044539    -0.072956
F    -3.058366447    3.385545193    -2.332198392    -0.084242    0.005247    0.015367
F    -1.3128430800000002    -1.6297208269999999    -1.685318161    -0.444291    0.32549    0.73304
F    -1.967233362    1.273834883    0.17547376199999998    0.219182    -0.195349    -0.492672
F    -3.3345075630000003    -1.3423126319999998    0.756277653    -0.092352    -0.344813    -0.045666
F    0.5719925979999999    -0.388254741    -3.527472704    -0.041758    0.293586    0.141917
F    -0.013165324999999978    1.9224799140000002    -2.1004088309999998    0.540111    0.597202    -0.271318
F    -2.579848557    0.37146255100000003    -2.6208464279999997    0.630468    -0.042104    0.140186
F    -0.5520357680000001    0.514254039    -0.425390408    0.152196    0.144393    -0.141432
