      12
SCF Done            -185.88462287
Al           -1.642484661         2.571194220        -1.294031691
Al           -0.611432555         0.101315806        -2.312856174
Al           -2.207758576        -0.457700318        -0.454609837
F            -0.739934541         3.689283036        -0.181001457
F            -3.023106447         3.175091193        -2.309162392
F            -1.470195080        -1.693903827        -1.618722161
F            -2.455901362         1.371411883        -0.087521238
F            -3.303193563        -1.413286632         0.640574653
F             0.570171598        -0.427535741        -3.563344704
F            -0.219632325         2.011431914        -2.413659831
F            -2.439378557         0.477528551        -2.321208428
F            -0.281400768         0.163120039        -0.424606408
