12
Properties=species:S:1:pos:R:3:forces:R:3 energy=-187.24277852 pbc="F F F"
Al    1.1089296800000001    0.064196317    2.3466920730000003    -0.388269    0.251669    -0.287204
Al    1.4513209999999999    1.353213    -0.11466900000000001    0.091641    0.086093    -0.016583
Al    -0.293459562    0.68143525    -2.198308773    0.283997    -0.349643    0.306096
F    -1.244632172    -0.903592453    -2.010526606    -0.414848    -0.558814    0.034494
F    1.753694253    -0.443735953    0.596389452    0.246274    -0.442345    -0.245794
F    -0.491376861    1.95931329    -3.610122333    0.06318    0.797337    -0.74719
F    -0.43246481000000003    1.664502753    -0.539534049    -0.376597    0.319913    0.269378
F    2.735666557    2.559795512    -0.34710444300000004    -0.019978    -0.018768    0.003616
F    1.6066722390000001    0.43062740499999996    -1.862597254    0.286875    -0.184105    -0.225091
F    0.883463117    1.8882664290000002    1.707912039    -0.125383    0.335819    0.195862
F    2.6205549689999996    0.02047707600000004    3.520761437    0.926149    0.132103    0.568129
F    -0.5235033250000001    -0.777939352    2.6264690710000003    -0.573042    -0.369259    0.144286
