      12
SCF Done            -187.20864999
Al            1.283447180         0.059139117         2.422887973
Al            1.256629900         1.199143600        -0.143053500
Al           -0.333092262         0.832066650        -2.340516573
F            -1.650671272        -0.352249853        -2.220062806
F             2.068648053        -0.366626653         0.773831152
F             0.044719439         1.807635490        -3.778209233
F            -0.341674410         1.929263953        -0.752625149
F             2.588235157         2.420770312        -0.319288443
F             1.270359739         0.049170205        -1.604765454
F             0.437010017         1.536326329         1.636333639
F             2.560599769         0.602552876         3.639997837
F             0.002114775        -1.219006852         2.818922971
