      12
SCF Done            -170.55552834
Al            0.404518795        -0.598610278         1.748410517
Al            2.321589763        -1.764159454        -0.475435490
Al           -0.907412982        -1.855540140        -1.042302536
F             3.382087911        -0.393393193        -1.028366803
F            -1.898107651        -0.669496689        -1.993829021
F             2.607132987        -3.563196077        -0.395376592
F            -1.323076773        -3.615293585        -1.198703469
F             1.967765196        -1.403534932         1.276818200
F             0.824273364        -1.508589682        -1.490371665
F             0.240732151        -1.170668641         3.462472281
F             0.494135579         1.136284766         1.211389072
F            -0.873903469        -1.461093721         0.751544812
