      12
SCF Done            -187.09691890
Al            0.404518793        -0.598610358         1.748410539
Al            2.321589765        -1.764159472        -0.475435497
Al           -0.907412981        -1.855540158        -1.042302543
F             3.382087907        -0.393393193        -1.028366780
F            -1.898107654        -0.669496688        -1.993828997
F             2.607132995        -3.563196094        -0.395376643
F            -1.323076766        -3.615293602        -1.198703520
F             1.967765197        -1.403534993         1.276818202
F             0.824273364        -1.508589682        -1.490371665
F             0.240732152        -1.170668763         3.462472289
F             0.494135571         1.136284699         1.211389136
F            -0.873903468        -1.461093783         0.751544814
