12
Properties=species:S:1:pos:R:3:forces:R:3 energy=-183.05790303 pbc="F F F"
Al    -0.08425765699999999    1.706847696    2.502507521    2.445904    1.733955    1.945392
Al    2.3885748959999997    2.639640425    1.3905921749999999    -1.701843    1.607724    -3.47935
Al    1.565328458    2.6565128810000003    -0.504079453    3.210764    1.326047    1.686131
F    0.831011252    3.334550719    3.091601732    -0.566276    0.934735    0.228688
F    -1.666789347    2.774703743    2.205719595    -1.760439    1.120554    -0.788912
F    -0.56785916    -0.14820281800000001    2.77210076    -0.887701    -2.394454    -0.382191
F    2.3083361690000004    0.916885985    1.882700134    2.250011    0.002871    -1.078024
F    3.321972942    1.4336978720000002    -0.328544254    0.906531    -0.961893    1.642574
F    1.0857837140000002    2.932684352    -2.074773504    -1.068409    -0.448207    -0.57375
F    1.787570968    4.393343087    0.971738065    1.410902    -0.527979    2.581989
F    3.7388256660000003    2.983916411    2.288799268    -1.059669    -0.698475    -0.695756
F    -0.2740927    1.723312468    -0.411532595    -3.179774    -1.694878    -1.086789
