12
-186.39349496
Al		-0.078592757		1.660825196		2.156064221
Al		2.544609396		2.648011425		1.790098375
Al		1.364115358		2.639695781		-0.621256653
F		0.973234452		3.196981319		2.748790432
F		-1.578275947		2.697693743		2.458554395
F		-0.55103926		-0.173599318		2.25935966
F		1.862765569		0.903665285		2.122484834
F		2.909834742		1.750974172		-0.009626954
F		1.040164114		2.898054052		-2.390239004
F		1.858134768		4.046405587		0.560870665
F		4.129980166		3.213081711		2.434233268
F		-0.0329532		1.876543468		0.289783705
