12
-186.39349496
Al		-0.077188557		1.620717996		2.154410821
Al		2.506110796		2.566262625		1.741344775
Al		1.352591958		2.689233381		-0.672818653
F		1.029216252		2.988991719		2.922267232
F		-1.578359947		2.671785343		1.894047795
F		-0.43518366		0.120810882		3.24613286
F		1.756049169		0.832921885		1.745579634
F		3.020319942		1.962921572		-0.135913954
F		1.135039314		3.171567852		-2.400912604
F		1.637414968		3.983727587		0.705235865
F		4.091737766		3.037853511		2.485189068
F		0.0135464		1.725395268		0.134095305
