12
-186.39349496
Al		-0.077489457		1.629312396		2.154765121
Al		2.514360496		2.583780225		1.751791975
Al		1.355061258		2.678618181		-0.661769653
F		1.017220152		3.033560919		2.885093632
F		-1.578341947		2.677337143		2.015013495
F		-0.46000986		0.057722982		3.03468146
F		1.778916969		0.848081185		1.826345034
F		2.996644542		1.917504272		-0.108852454
F		1.114708914		3.112957752		-2.398625404
F		1.684712068		3.997158587		0.674300465
F		4.099932566		3.075402411		2.474269968
F		0.0035822		1.757784168		0.167457105
