12
-186.39349496
Al		-0.077288857		1.623582796		2.154528921
Al		2.508860696		2.572101825		1.744827175
Al		1.353415058		2.685694981		-0.669135653
F		1.025217552		3.003848119		2.909876032
F		-1.578353947		2.673635943		1.934369695
F		-0.44345906		0.099781582		3.17564906
F		1.763671769		0.837974985		1.772501434
F		3.012428142		1.947782472		-0.126893454
F		1.128262514		3.152031152		-2.400150204
F		1.653180668		3.988204587		0.694924065
F		4.094469366		3.050369811		2.481549368
F		0.010225		1.736191568		0.145215905
