12
-186.39349496
Al		-0.077690013		1.635041972		2.15500142
Al		2.519860296		2.595458625		1.758756775
Al		1.356707484		2.671541384		-0.654403654
F		1.009222778		3.063273736		2.860311263
F		-1.578329883		2.681038322		2.095657386
F		-0.476560671		0.015664334		2.89371383
F		1.794162153		0.858187393		1.880188665
F		2.980860945		1.887226053		-0.090811416
F		1.101155409		3.073884333		-2.397100612
F		1.716243494		4.006112587		0.653676867
F		4.105395768		3.100434977		2.46699058
F		-0.003060591		1.77937681		0.189698293
