12
-186.39349496
Al		-0.078492413		1.657960372		2.15594622
Al		2.541859496		2.642172225		1.786615975
Al		1.363292284		2.643234184		-0.624939654
F		0.977233178		3.182124936		2.761181663
F		-1.578281883		2.695843122		2.418232586
F		-0.542763871		-0.152570066		2.32984343
F		1.855142953		0.898612193		2.095563065
F		2.917726545		1.766113253		-0.018647416
F		1.046941009		2.917590733		-2.391001412
F		1.842369094		4.041928587		0.571182467
F		4.127248568		3.200565377		2.43787298
F		-0.029631791		1.86574721		0.278663093
