12
-186.39349496
Al		-0.078893613		1.669419572		2.15641862
Al		2.552859096		2.665529025		1.800545575
Al		1.366584684		2.629080584		-0.610207654
F		0.961238378		3.241550536		2.711616863
F		-1.578257883		2.703245522		2.579520186
F		-0.575865471		-0.236687266		2.04790823
F		1.885633353		0.918824593		2.203250265
F		2.886159345		1.705556853		0.017434584
F		1.019833809		2.839443933		-2.387951812
F		1.905431894		4.059836587		0.529935267
F		4.138174968		3.250630577		2.42331418
F		-0.042917391		1.90893241		0.323145493
