12
-186.39349496
Al		-0.077589757		1.632177196		2.154883221
Al		2.517110396		2.589619425		1.755274375
Al		1.355884358		2.675079781		-0.658086653
F		1.013221452		3.048417319		2.872702432
F		-1.578335947		2.679187743		2.055335395
F		-0.46828526		0.036693682		2.96419766
F		1.786539569		0.853134285		1.853266834
F		2.988752742		1.902365172		-0.099831954
F		1.107932114		3.093421052		-2.397863004
F		1.700477768		4.001635587		0.663988665
F		4.102664166		3.087918711		2.470630268
F		0.0002608		1.768580468		0.178577705
