12
-186.39349496
Al		-0.078191557		1.649365996		2.155591821
Al		2.533609796		2.624654625		1.776168775
Al		1.360822958		2.653849381		-0.635988653
F		0.989229252		3.137555719		2.798355232
F		-1.578299947		2.690291343		2.297266795
F		-0.51793766		-0.089482118		2.54129486
F		1.832275169		0.883452885		2.014797634
F		2.941401942		1.811530572		-0.045708954
F		1.067271314		2.976200852		-2.393288604
F		1.795071968		4.028497587		0.602117865
F		4.119053766		3.163016511		2.448792068
F		-0.0196676		1.833358268		0.245301305
