12
-186.39349496
Al		-0.077088257		1.617853196		2.154292721
Al		2.503360896		2.560423425		1.737862375
Al		1.351768858		2.692771781		-0.676501653
F		1.033214952		2.974135319		2.934658432
F		-1.578365947		2.669934743		1.853725895
F		-0.42690826		0.141840182		3.31661666
F		1.748426569		0.827868785		1.718657834
F		3.028211742		1.978060672		-0.144934454
F		1.141816114		3.191104552		-2.401675004
F		1.621649268		3.979250587		0.715547665
F		4.089006166		3.025337211		2.488828768
F		0.0168678		1.714598968		0.122974705
