12
-186.39349496
Al		-0.076887657		1.612123596		2.154056521
Al		2.497861096		2.548745025		1.730897575
Al		1.350122658		2.699848581		-0.683867653
F		1.041212352		2.944422519		2.959440832
F		-1.578377947		2.666233543		1.773082095
F		-0.41035746		0.183898782		3.45758426
F		1.733181369		0.817762585		1.664814234
F		3.043995342		2.008338872		-0.162975454
F		1.155369714		3.230177952		-2.403199804
F		1.590117868		3.970296587		0.736171265
F		4.083542966		3.000304611		2.496108168
F		0.0235106		1.693006368		0.100733505
12
-186.39349496
Al		-0.076987957		1.614988396		2.154174621
Al		2.500610996		2.554584225		1.734379975
Al		1.350945758		2.696310181		-0.680184653
F		1.037213652		2.959278919		2.947049632
F		-1.578371947		2.668084143		1.813403995
F		-0.41863286		0.162869482		3.38710046
F		1.740803969		0.822815685		1.691736034
F		3.036103542		1.993199772		-0.153954954
F		1.148592914		3.210641252		-2.402437404
F		1.605883568		3.974773587		0.725859465
F		4.086274566		3.012820911		2.492468468
F		0.0201892		1.703802668		0.111854105
12
-186.39349496
Al		-0.077088257		1.617853196		2.154292721
Al		2.503360896		2.560423425		1.737862375
Al		1.351768858		2.692771781		-0.676501653
F		1.033214952		2.974135319		2.934658432
F		-1.578365947		2.669934743		1.853725895
F		-0.42690826		0.141840182		3.31661666
F		1.748426569		0.827868785		1.718657834
F		3.028211742		1.978060672		-0.144934454
F		1.141816114		3.191104552		-2.401675004
F		1.621649268		3.979250587		0.715547665
F		4.089006166		3.025337211		2.488828768
F		0.0168678		1.714598968		0.122974705
12
-186.39349496
Al		-0.077188557		1.620717996		2.154410821
Al		2.506110796		2.566262625		1.741344775
Al		1.352591958		2.689233381		-0.672818653
F		1.029216252		2.988991719		2.922267232
F		-1.578359947		2.671785343		1.894047795
F		-0.43518366		0.120810882		3.24613286
F		1.756049169		0.832921885		1.745579634
F		3.020319942		1.962921572		-0.135913954
F		1.135039314		3.171567852		-2.400912604
F		1.637414968		3.983727587		0.705235865
F		4.091737766		3.037853511		2.485189068
F		0.0135464		1.725395268		0.134095305
12
-186.39349496
Al		-0.077288857		1.623582796		2.154528921
Al		2.508860696		2.572101825		1.744827175
Al		1.353415058		2.685694981		-0.669135653
F		1.025217552		3.003848119		2.909876032
F		-1.578353947		2.673635943		1.934369695
F		-0.44345906		0.099781582		3.17564906
F		1.763671769		0.837974985		1.772501434
F		3.012428142		1.947782472		-0.126893454
F		1.128262514		3.152031152		-2.400150204
F		1.653180668		3.988204587		0.694924065
F		4.094469366		3.050369811		2.481549368
F		0.010225		1.736191568		0.145215905
12
-186.39349496
Al		-0.077389157		1.626447596		2.154647021
Al		2.511610596		2.577941025		1.748309575
Al		1.354238158		2.682156581		-0.665452653
F		1.021218852		3.018704519		2.897484832
F		-1.578347947		2.675486543		1.974691595
F		-0.45173446		0.078752282		3.10516526
F		1.771294369		0.843028085		1.799423234
F		3.004536342		1.932643372		-0.117872954
F		1.121485714		3.132494452		-2.399387804
F		1.668946368		3.992681587		0.684612265
F		4.097200966		3.062886111		2.477909668
F		0.0069036		1.746987868		0.156336505
12
-186.39349496
Al		-0.077489457		1.629312396		2.154765121
Al		2.514360496		2.583780225		1.751791975
Al		1.355061258		2.678618181		-0.661769653
F		1.017220152		3.033560919		2.885093632
F		-1.578341947		2.677337143		2.015013495
F		-0.46000986		0.057722982		3.03468146
F		1.778916969		0.848081185		1.826345034
F		2.996644542		1.917504272		-0.108852454
F		1.114708914		3.112957752		-2.398625404
F		1.684712068		3.997158587		0.674300465
F		4.099932566		3.075402411		2.474269968
F		0.0035822		1.757784168		0.167457105
12
-186.39349496
Al		-0.077589757		1.632177196		2.154883221
Al		2.517110396		2.589619425		1.755274375
Al		1.355884358		2.675079781		-0.658086653
F		1.013221452		3.048417319		2.872702432
F		-1.578335947		2.679187743		2.055335395
F		-0.46828526		0.036693682		2.96419766
F		1.786539569		0.853134285		1.853266834
F		2.988752742		1.902365172		-0.099831954
F		1.107932114		3.093421052		-2.397863004
F		1.700477768		4.001635587		0.663988665
F		4.102664166		3.087918711		2.470630268
F		0.0002608		1.768580468		0.178577705
12
-186.39349496
Al		-0.077690057		1.635041996		2.155001321
Al		2.519860296		2.595458625		1.758756775
Al		1.356707458		2.671541381		-0.654403653
F		1.009222752		3.063273719		2.860311232
F		-1.578329947		2.681038343		2.095657295
F		-0.47656066		0.015664382		2.89371386
F		1.794162169		0.858187385		1.880188634
F		2.980860942		1.887226072		-0.090811454
F		1.101155314		3.073884352		-2.397100604
F		1.716243468		4.006112587		0.653676865
F		4.105395766		3.100435011		2.466990568
F		-0.0030606		1.779376768		0.189698305
12
-186.39349496
Al		-0.077790357		1.637906796		2.155119421
Al		2.522610196		2.601297825		1.762239175
Al		1.357530558		2.668002981		-0.650720653
F		1.005224052		3.078130119		2.847920032
F		-1.578323947		2.682888943		2.135979195
F		-0.48483606		-0.005364918		2.82323006
F		1.801784769		0.863240485		1.907110434
F		2.972969142		1.872086972		-0.081790954
F		1.094378514		3.054347652		-2.396338204
F		1.732009168		4.010589587		0.643365065
F		4.108127366		3.112951311		2.463350868
F		-0.006382		1.790173068		0.200818905
12
-186.39349496
Al		-0.077890657		1.640771596		2.155237521
Al		2.525360096		2.607137025		1.765721575
Al		1.358353658		2.664464581		-0.647037653
F		1.001225352		3.092986519		2.835528832
F		-1.578317947		2.684739543		2.176301095
F		-0.49311146		-0.026394218		2.75274626
F		1.809407369		0.868293585		1.934032234
F		2.965077342		1.856947872		-0.072770454
F		1.087601714		3.034810952		-2.395575804
F		1.747774868		4.015066587		0.633053265
F		4.110858966		3.125467611		2.459711168
F		-0.0097034		1.800969368		0.211939505
12
-186.39349496
Al		-0.077990957		1.643636396		2.155355621
Al		2.528109996		2.612976225		1.769203975
Al		1.359176758		2.660926181		-0.643354653
F		0.997226652		3.107842919		2.823137632
F		-1.578311947		2.686590143		2.216622995
F		-0.50138686		-0.047423518		2.68226246
F		1.817029969		0.873346685		1.960954034
F		2.957185542		1.841808772		-0.063749954
F		1.080824914		3.015274252		-2.394813404
F		1.763540568		4.019543587		0.622741465
F		4.113590566		3.137983911		2.456071468
F		-0.0130248		1.811765668		0.223060105
12
-186.39349496
Al		-0.078091257		1.646501196		2.155473721
Al		2.530859896		2.618815425		1.772686375
Al		1.359999858		2.657387781		-0.639671653
F		0.993227952		3.122699319		2.810746432
F		-1.578305947		2.688440743		2.256944895
F		-0.50966226		-0.068452818		2.61177866
F		1.824652569		0.878399785		1.987875834
F		2.949293742		1.826669672		-0.054729454
F		1.074048114		2.995737552		-2.394051004
F		1.779306268		4.024020587		0.612429665
F		4.116322166		3.150500211		2.452431768
F		-0.0163462		1.822561968		0.234180705
12
-186.39349496
Al		-0.078191557		1.649365996		2.155591821
Al		2.533609796		2.624654625		1.776168775
Al		1.360822958		2.653849381		-0.635988653
F		0.989229252		3.137555719		2.798355232
F		-1.578299947		2.690291343		2.297266795
F		-0.51793766		-0.089482118		2.54129486
F		1.832275169		0.883452885		2.014797634
F		2.941401942		1.811530572		-0.045708954
F		1.067271314		2.976200852		-2.393288604
F		1.795071968		4.028497587		0.602117865
F		4.119053766		3.163016511		2.448792068
F		-0.0196676		1.833358268		0.245301305
12
-186.39349496
Al		-0.078291857		1.652230796		2.155709921
Al		2.536359696		2.630493825		1.779651175
Al		1.361646058		2.650310981		-0.632305653
F		0.985230552		3.152412119		2.785964032
F		-1.578293947		2.692141943		2.337588695
F		-0.52621306		-0.110511418		2.47081106
F		1.839897769		0.888505985		2.041719434
F		2.933510142		1.796391472		-0.036688454
F		1.060494514		2.956664152		-2.392526204
F		1.810837668		4.032974587		0.591806065
F		4.121785366		3.175532811		2.445152368
F		-0.022989		1.844154568		0.256421905
12
-186.39349496
Al		-0.078392157		1.655095596		2.155828021
Al		2.539109596		2.636333025		1.783133575
Al		1.362469158		2.646772581		-0.628622653
F		0.981231852		3.167268519		2.773572832
F		-1.578287947		2.693992543		2.377910595
F		-0.53448846		-0.131540718		2.40032726
F		1.847520369		0.893559085		2.068641234
F		2.925618342		1.781252372		-0.027667954
F		1.053717714		2.937127452		-2.391763804
F		1.826603368		4.037451587		0.581494265
F		4.124516966		3.188049111		2.441512668
F		-0.0263104		1.854950868		0.267542505
12
-186.39349496
Al		-0.078492457		1.657960396		2.155946121
Al		2.541859496		2.642172225		1.786615975
Al		1.363292258		2.643234181		-0.624939653
F		0.977233152		3.182124919		2.761181632
F		-1.578281947		2.695843143		2.418232495
F		-0.54276386		-0.152570018		2.32984346
F		1.855142969		0.898612185		2.095563034
F		2.917726542		1.766113272		-0.018647454
F		1.046940914		2.917590752		-2.391001404
F		1.842369068		4.041928587		0.571182465
F		4.127248566		3.200565411		2.437872968
F		-0.0296318		1.865747168		0.278663105
12
-186.39349496
Al		-0.078592757		1.660825196		2.156064221
Al		2.544609396		2.648011425		1.790098375
Al		1.364115358		2.639695781		-0.621256653
F		0.973234452		3.196981319		2.748790432
F		-1.578275947		2.697693743		2.458554395
F		-0.55103926		-0.173599318		2.25935966
F		1.862765569		0.903665285		2.122484834
F		2.909834742		1.750974172		-0.009626954
F		1.040164114		2.898054052		-2.390239004
F		1.858134768		4.046405587		0.560870665
F		4.129980166		3.213081711		2.434233268
F		-0.0329532		1.876543468		0.289783705
12
-186.39349496
Al		-0.078693057		1.663689996		2.156182321
Al		2.547359296		2.653850625		1.793580775
Al		1.364938458		2.636157381		-0.617573653
F		0.969235752		3.211837719		2.736399232
F		-1.578269947		2.699544343		2.498876295
F		-0.55931466		-0.194628618		2.18887586
F		1.870388169		0.908718385		2.149406634
F		2.901942942		1.735835072		-0.000606454
F		1.033387314		2.878517352		-2.389476604
F		1.873900468		4.050882587		0.550558865
F		4.132711766		3.225598011		2.430593568
F		-0.0362746		1.887339768		0.300904305
12
-186.39349496
Al		-0.078793357		1.666554796		2.156300421
Al		2.550109196		2.659689825		1.797063175
Al		1.365761558		2.632618981		-0.613890653
F		0.965237052		3.226694119		2.724008032
F		-1.578263947		2.701394943		2.539198195
F		-0.56759006		-0.215657918		2.11839206
F		1.878010769		0.913771485		2.176328434
F		2.894051142		1.720695972		0.008414046
F		1.026610514		2.858980652		-2.388714204
F		1.889666168		4.055359587		0.540247065
F		4.135443366		3.238114311		2.426953868
F		-0.039596		1.898136068		0.312024905
