12
Properties=species:S:1:pos:R:3:forces:R:3 energy=-186.37506821 pbc="F F F"
Al    -0.035237457    1.712093396    2.096501121    0.173278    0.280758    -0.254292
Al    2.533823496    2.624675225    1.825644975    -0.076952    -0.083602    -0.05639
Al    1.3019722580000002    2.512727181    -0.623252653    0.003366    0.029763    -0.068027
F    1.1941761519999998    2.8281119190000004    3.251042632    -0.021248    0.009905    0.036347
F    -1.3212389469999999    3.053687143    1.9202244949999998    -0.133166    0.124846    -0.06053
F    -0.60215586    0.146235982    2.9311064599999996    -0.087899    -0.389199    0.273402
F    1.706038969    0.896583185    1.551451034    0.057273    0.00805    -0.042437
F    3.119462542    2.130348272    -0.109406454    0.048937    -0.005703    -0.019685
F    1.185585914    3.056202752    -2.361461404    0.001361    -0.002471    0.029454
F    1.272341068    3.821616587    0.845696465    -0.007463    0.031008    0.026988
F    4.159045566    3.108692411    2.443780968    0.068718    0.024755    0.039009
F    -0.0661688    1.486337168    0.032773105    -0.026205    -0.028112    0.09616
