      12
SCF Done            -167.71472864
Al           -0.078291813         1.652230772         2.155710020
Al            2.536359696         2.630493825         1.779651175
Al            1.361646084         2.650310984        -0.632305654
F             0.985230578         3.152412136         2.785964063
F            -1.578293883         2.692141922         2.337588786
F            -0.526213071        -0.110511466         2.470811030
F             1.839897753         0.888505993         2.041719465
F             2.933510145         1.796391453        -0.036688416
F             1.060494609         2.956664133        -2.392526212
F             1.810837694         4.032974587         0.591806067
F             4.121785368         3.175532777         2.445152380
F            -0.022988991         1.844154610         0.256421893
