      12
SCF Done            -170.73651161
Al            0.308059595        -0.638473678         1.752998717
Al            2.366664763        -1.749674654        -0.496928890
Al           -0.867808782        -1.830777540        -1.027148536
F             3.481917311        -0.438631193        -1.054414603
F            -1.816636251        -0.561043289        -1.907410421
F             2.772676787        -3.525103677        -0.498719192
F            -1.181326573        -3.616452585        -1.135260669
F             1.880056996        -1.418666932         1.229675600
F             0.856050164        -1.477938882        -1.487737465
F             0.056315951        -1.238485241         3.440131881
F             0.357188179         1.112623966         1.240730072
F            -0.971158869        -1.484538321         0.770668012
