      12
SCF Done            -186.45326795
Al           -0.384627138         1.128621260        -1.821291136
Al           -0.453762214         1.101546053         1.281145336
Al           -3.002809519         0.379373089        -1.857302742
F            -3.456234861        -0.034472792        -3.593066608
F            -1.309095357        -0.540654301        -1.656893545
F            -2.014670787         2.050885203        -2.077920583
F            -2.117002525         1.098584039         0.448423724
F             0.551407327         1.478201243        -0.298742811
F            -0.037813875         2.600083697         2.310482747
F             0.186273815        -0.601849358         1.737582445
F            -4.291483192         0.279504970        -0.582102065
F             0.743070627         1.264672037        -3.234254329
