12
Properties=species:S:1:pos:R:3:forces:R:3 energy=-186.19463159 pbc="F F F"
Al    -0.314806038    0.99718396    -1.743919536    -0.036184    -0.678622    0.537791
Al    -0.40625751400000004    1.117112053    1.306066836    -0.154235    0.089125    -0.120349
Al    -2.9146741190000003    0.518585689    -1.822071542    -0.141499    0.166291    -0.049149
F    -3.367061461    0.30671440800000005    -3.579396708    0.004791    0.055502    -0.00863
F    -1.321263757    -0.608147301    -1.804514445    0.053823    -0.102387    0.259122
F    -1.864415487    2.1317198029999997    -1.838029583    0.049227    0.144044    -0.289482
F    -1.8801421249999999    0.923231739    0.22124222400000002    -0.290742    0.383099    0.061128
F    0.852311327    0.9541496429999999    -0.291978911    0.269714    -0.484383    0.013982
F    -0.726192575    2.743105397    2.118603147    -0.418258    0.207104    0.16353
F    0.24753971500000005    -0.401595658    2.199127445    0.563235    -0.183729    -0.215947
F    -4.115730292    0.24590507    -0.485644965    -0.013223    -0.064663    0.016416
F    0.18456982700000002    1.2720573370000001    -3.649778229    0.113351    0.468621    -0.368413
