      12
SCF Done            -167.72440093
Al           -0.337435038         0.910256960        -1.817126536
Al           -0.452448381         1.095468091         1.281260801
Al           -3.030437103         0.507206678        -1.859740809
F            -3.537703455         0.342490336        -3.600256961
F            -1.443251758        -0.621564304        -1.712253538
F            -1.859519493         2.034646789        -2.020707761
F            -2.080606977         0.930178855         0.451635109
F             0.658981416         0.980446097        -0.289249975
F            -0.520645381         2.724325404         2.110181171
F             0.573166808        -0.282166671         1.929417358
F            -4.271535167         0.187203126        -0.580342113
F             0.710687419         1.414515703        -3.237111244
