12
Properties=species:S:1:pos:R:3:forces:R:3 energy=-186.38376449 pbc="F F F"
Al    -0.180459357    1.7537961960000001    2.066285421    0.082369    -0.097457    0.037985
Al    2.492482796    2.786178725    1.941552475    -0.043172    -0.103774    -0.131826
Al    1.545902358    2.3956951810000002    -0.599017553    -0.080889    0.113128    -0.075359
F    0.8865620519999999    3.136717519    3.0094989319999996    -0.002354    0.009189    -0.008515
F    -1.848317347    2.534679543    2.096493095    0.00236    0.066057    0.012672
F    -0.28559475999999995    -0.0070264179999999996    2.67685906    -0.030621    0.024418    -0.000278
F    1.726096669    1.052072385    1.7939625339999998    0.017512    0.00076    0.025219
F    3.1323977419999998    1.768185972    0.03302724600000001    0.013777    -0.002483    0.02958
F    0.961826214    3.110729352    -2.250707004    0.025313    -0.018972    0.012432
F    1.751639868    3.8794858870000004    0.6642430650000001    -0.000914    -0.000588    -0.006368
F    4.408804666    2.9946443109999996    2.161264968    0.005134    0.047347    0.094639
F    -0.1546898    1.955638668    0.189573105    0.011485    -0.037626    0.00982
