12
Properties=species:S:1:pos:R:3:forces:R:3 energy=-174.07420398 pbc="F F F"
Al    1.29667418    0.131725517    2.287760173    -0.1002    4.157188    -9.361654
Al    1.1912201    1.3508434    -0.6014945    -14.047835    -5.211461    -15.076889
Al    -0.188423862    0.84018685    -2.084756973    -2.277446    -0.335034    -3.569163
F    -1.869146072    -0.5932670529999999    -2.1015994059999996    6.305553    5.968305    -1.239476
F    2.1194004530000004    -0.49232925299999997    0.898045752    -0.327833    -0.434648    3.809991
F    0.209895839    2.07985209    -4.066334433    -2.351976    -4.558915    5.609081
F    -0.34971421    1.959797553    -0.676231949    9.180475    -2.711178    3.189417
F    2.501438957    2.349619712    -0.326506443    1.611508    1.107981    0.604012
F    1.325989739    0.005447604999999994    -1.5620290540000001    1.106296    6.705657    7.457545
F    0.387978217    1.526999529    1.8132954389999998    1.062434    -2.056091    3.07507
F    2.688351169    0.659021276    3.7570840370000003    3.490011    1.251616    3.840764
F    -0.145060425    -1.364249852    2.860957171    -3.650987    -3.883419    1.661301
