      12
SCF Done            -174.07420398
Al            1.289971180         0.140689517         2.255303173
Al            1.095397100         1.278348400        -0.622817500
Al           -0.445049862         0.802309850        -2.486658973
F            -1.491592072        -0.211061053        -2.230632406
F             2.112438453        -0.482712253         0.917028752
F             0.005817839         1.703429090        -3.621888433
F            -0.202671210         1.902625553        -0.626657949
F             2.591103957         2.419360712        -0.310752443
F             1.330955739         0.113976605        -1.437351054
F             0.402393217         1.511685529         1.820978439
F             2.694086169         0.660295276         3.765121037
F            -0.145420425        -1.365866852         2.863842171
