12
Properties=species:S:1:pos:R:3:forces:R:3 energy=-186.63344254 pbc="F F F"
Al    1.28277678    -0.012378783000000004    2.579366573    -0.001842    -0.004523    0.006495
Al    1.3032698    1.2141254    -0.0878757    -0.941502    -0.884492    0.170387
Al    -0.404860962    0.81667735    -2.442282273    -0.00574    -0.002601    -0.005115
F    -1.888893172    -0.567211853    -2.1964444060000003    -0.014073    0.00482    -0.037257
F    2.223778253    -0.503934153    0.589260452    -0.9927    1.959334    -0.967693
F    0.117766339    1.98645569    -4.034557733    -0.026191    -0.023824    0.003018
F    -0.46938481    2.131636153    -0.6108009489999999    2.061056    -0.955671    0.774346
F    2.704963857    2.530944012    -0.341544843    -1.133417    -1.064787    0.205118
F    1.4750657390000002    -0.13613139500000002    -1.638634854    -0.034908    1.488827    1.882302
F    0.2793376169999999    1.763845729    1.617093739    1.103267    -0.485158    -2.075649
F    2.754324169    0.691264976    3.810750837    -0.025102    -0.024361    0.006262
F    -0.186874825    -1.403323852    2.868064171    0.011151    -0.007565    0.037785
