      12
SCF Done            -186.38399342
Al           -0.149608657         1.706638096         2.142743421
Al            2.453641796         2.673003525         1.753227475
Al            1.286635358         2.730331381        -0.659531753
F             0.941040852         3.148260619         2.825044132
F            -1.638502447         2.740013643         2.165816395
F            -0.553295960         0.028879882         2.742261260
F             1.749222869         0.923567685         1.923547234
F             2.904892842         1.912221972        -0.083255454
F             1.027417214         3.090085052        -2.406060504
F             1.687590368         4.070340687         0.622568565
F             4.050674466         3.180741711         2.449226168
F            -0.069887900         1.856243468         0.201454505
