12
Properties=species:S:1:pos:R:3:forces:R:3 energy=-186.39349496 pbc="F F F"
Al    -0.209503657    1.761785596    2.045458521    0.0    -0.0    -1e-06
Al    2.489673096    2.792830025    1.996422575    1e-06    0.0    0.0
Al    1.560516658    2.399148581    -0.577918653    -0.0    0.0    -0.0
F    0.851108352    3.120296519    3.027397832    0.0    0.0    0.0
F    -1.886933947    2.511549543    2.0889610949999997    -0.0    -0.0    -0.0
F    -0.27200846    0.004667781999999999    2.67822826    0.0    -0.0    -0.0
F    1.731904369    1.062285585    1.7821992340000001    0.0    -0.0    -0.0
F    3.148603342    1.772086872    0.005082546000000007    -0.0    -0.0    -0.0
F    0.968226714    3.079586952    -2.226903804    0.0    0.0    -0.0
F    1.772544868    3.878153587    0.682935265    -0.0    0.0    0.0
F    4.435061966    2.988550611    2.079903168    0.0    0.0    -0.0
F    -0.1492394    1.9863873680000002    0.190703505    -0.0    0.0    1e-06
