12
Properties=species:S:1:pos:R:3:forces:R:3 energy=-175.01546759 pbc="F F F"
Al    0.388836793    -0.9099699579999999    1.4298043390000001    2.050984    -13.576088    -12.881724
Al    2.822370165    -1.930799472    -0.707332897    4.931078    -2.813263    -2.549452
Al    -0.7332879809999999    -1.823893158    -0.9604603429999998    -3.926544    -2.92701    -3.839845
F    3.165055507    -0.9340389929999999    -0.94888698    -2.502813    -3.241329    1.380058
F    -1.975343054    -0.286253688    -2.017332397    2.085824    -3.182394    2.048538
F    2.6676187949999997    -3.008581094    -0.528305043    -0.832192    5.557243    -0.218505
F    -1.231858366    -3.890626202    -1.0310065199999998    0.719918    5.577163    0.007612
F    1.686404197    -1.299269993    1.3897020020000002    -9.817319    3.718134    3.742198
F    0.710239164    -1.4985734819999998    -1.532957065    0.129595    0.399855    -0.92484
F    0.07187595199999999    -1.2517969629999999    3.717123089    -1.068423    -0.709108    7.396475
F    0.415455171    1.407246899    1.125321536    -0.015259    7.246693    -0.534086
F    -0.873963668    -1.355195383    0.9803936140000001    8.245152    3.950105    6.373569
