      12
SCF Done            -184.32010432
Al            0.085846972        -2.375878611        -1.416059861
Al            2.124083130        -0.518405256        -1.001159624
Al           -0.234881206         0.334405903        -2.019416083
F             3.523489288        -0.205653616         0.188655977
F             0.048838026        -3.977763893        -2.696969636
F             1.931861638        -1.875392276        -2.224396589
F             1.661693495         0.765421339        -2.472502420
F            -1.597278422         1.623539531        -1.928321911
F            -1.259510486        -1.166381852        -0.904287769
F            -0.099845974        -1.150024509        -3.093679181
F             0.583556996         0.341784998        -0.292889002
F             1.132342134        -2.035163610         0.114483827
