12
Properties=species:S:1:pos:R:3:forces:R:3 energy=-186.48804016 pbc="F F F"
Al    -0.304895238    1.61117136    -1.8294761359999998    0.550648    0.82436    0.329682
Al    -0.37174311400000004    1.343042653    1.276210636    -0.14068    -0.275667    -0.043598
Al    -2.857313119    0.560549289    -1.9023989419999998    -0.33812    -0.462908    -0.414029
F    -3.3849560609999996    0.461287408    -3.6443655080000004    -0.006296    0.021866    -0.002764
F    -1.085954157    -0.22891630100000004    -1.970918645    -0.185214    -0.725825    -0.072908
F    -2.052624087    2.317329403    -1.808183583    0.072175    0.405501    0.029811
F    -1.9214823250000002    0.7665357389999999    0.433097424    -0.112717    -0.041932    -0.015756
F    0.620246327    1.779129243    -0.290683111    0.164613    0.054858    -0.230964
F    -0.48553317500000004    2.930347597    2.117758747    -0.044909    0.508171    0.243368
F    0.652329115    -0.066829258    1.926200845    0.17389    -0.259035    0.10659
F    -4.094374891999999    0.004757669999999992    -0.628747565    -0.367943    -0.109184    0.34839
F    0.754989627    2.012279737    -3.2326830290000004    0.234554    0.059794    -0.277823
