12
Properties=species:S:1:pos:R:3:forces:R:3 energy=-172.04123496 pbc="F F F"
Al    0.39535049299999997    -0.948781058    1.3912130390000002    2.137634    -14.405081    -13.403436
Al    2.823322265    -1.932101672    -0.713872697    5.249994    -3.162973    -2.657515
Al    -0.763691981    -1.8409269579999998    -0.9892567430000001    -4.192482    -3.28423    -4.033112
F    3.156806607    -0.9566048930000001    -0.94480208    -2.781522    -3.716381    1.535343
F    -1.967444954    -0.28289578800000004    -2.009112997    2.320509    -3.650853    2.278615
F    2.670114595    -2.9822188940000003    -0.533570843    -0.848192    6.328203    -0.318072
F    -1.223150966    -3.882178702    -1.0225256200000001    0.744263    6.348639    -0.086076
F    1.667690097    -1.2887731930000002    1.404434702    -11.424469    3.953852    3.686978
F    0.733865164    -1.496834682    -1.5327618650000001    0.150129    0.438865    -1.069235
F    0.066933352    -1.261730263    3.751310189    -1.114396    -0.599487    7.702384
F    0.416093871    1.441252099    1.116088336    -0.036286    7.523079    -0.414115
F    -0.858091268    -1.339006883    1.013088214    9.794817    4.226366    6.77824
