      12
SCF Done            -172.04123496
Al            0.404785493        -0.948660058         1.392588039
Al            2.524771265        -1.867315672        -0.633778697
Al           -1.025265981        -1.912907958        -1.150953743
F             3.394052607        -0.583800893        -1.069139080
F            -1.766225954        -0.650072788        -1.820897997
F             2.698684595        -3.406828894        -0.490296843
F            -1.194110966        -3.456823702        -1.057406620
F             1.700267097        -1.297252193         1.397487702
F             0.835815164        -1.495525682        -1.517909865
F             0.065220352        -1.261752263         3.751060189
F             0.414409871         1.441230099         1.115843336
F            -0.829072268        -1.329735883         1.029009214
