12
Properties=species:S:1:pos:R:3:forces:R:3 energy=-186.30357461 pbc="F F F"
Al    -1.574560961    2.8366471200000003    -1.307421891    0.03074    0.069679    0.112507
Al    -0.545461355    0.288358906    -2.595568274    0.202454    0.076277    -0.79806
Al    -1.883099376    -0.06311531799999998    -0.463091537    -0.137351    -0.048538    0.677089
F    -0.514178341    3.9488735360000002    -0.380041257    0.176117    0.169941    0.144028
F    -3.084312447    3.371274193    -2.192128392    -0.311049    0.103901    -0.201029
F    -1.2643490800000001    -1.441998127    -1.783416461    -0.014546    -0.181377    -0.033027
F    -2.208538362    1.681944683    0.12420706200000001    -0.059094    -0.068131    0.147013
F    -2.796248263    -1.0779297319999999    0.813080053    -0.188897    -0.141672    0.213408
F    0.426833498    -0.2679305409999999    -4.016044904    0.161789    -0.040036    -0.172861
F    -0.383465025    2.140607614    -2.6102898310000002    0.152112    -0.015102    -0.143241
F    -2.469253957    0.680112951    -2.232255028    -0.212769    0.060328    -0.265788
F    -0.028334868000000013    0.427709239    -0.6453912079999999    0.200494    0.014731    0.319962
