12
Properties=species:S:1:pos:R:3:forces:R:3 energy=-186.25970078 pbc="F F F"
Al    1.28660088    0.046022117    2.4393770729999997    0.039104    0.073638    -0.088496
Al    0.9288856000000001    1.6891968    0.11637259999999999    0.65135    0.611909    -0.117876
Al    -0.313571362    0.83209745    -2.322073773    0.090683    0.04829    0.064997
F    -1.608517172    -0.44029125300000005    -2.247321206    0.023835    -0.003087    0.051903
F    2.2063732529999998    -0.6912143530000001    1.138843452    1.020521    -2.062238    0.811079
F    0.106747539    1.7583300899999998    -3.826844133    0.026514    0.024281    -0.003412
F    -0.27854881000000004    1.982304553    -0.539690849    -2.131178    1.018838    -0.610075
F    2.740862157    2.463326512    -0.364772243    1.37598    1.292661    -0.249015
F    1.118891239    -0.156995195    -2.0970514540000003    0.139526    -1.629458    -1.810404
F    0.375922117    1.660797029    1.407750439    -1.250185    0.586049    2.011404
F    2.600839369    0.5331218759999999    3.5945492370000003    0.02564    0.024712    -0.006023
F    0.080301675    -1.269915352    2.777903271    -0.011788    0.014404    -0.054082
