      12
SCF Done            -163.31437579
Al            1.282913262         0.050324516         2.441326237
Al            1.321521600         1.231271800        -0.091179400
Al           -0.317257985         0.836399764        -2.320123073
F            -1.668843804        -0.369930944        -2.215432077
F             2.139330192        -0.504430354         0.824939513
F             0.051725384         1.822502854        -3.797757994
F            -0.518141826         2.006994481        -0.822369895
F             2.692735753         2.519456509        -0.339332244
F             1.268351423        -0.076568072        -1.766731577
F             0.352835271         1.579130223         1.769301502
F             2.545817130         0.597294619         3.623633809
F             0.019975159        -1.199554859         2.809793986
