12
Properties=species:S:1:pos:R:3:forces:R:3 energy=-187.38518821 pbc="F F F"
Al    1.27447668    -0.052992683    2.6533170729999997    0.0    0.0    0.0
Al    1.478325    1.0902370000000001    0.516622    0.0    0.0    -0.0
Al    -0.179150562    0.87298225    -2.139570773    0.0    0.0    -0.0
F    -1.869405172    -0.546384453    -2.2055296060000003    -0.0    -0.0    0.0
F    2.008436253    -0.20700895299999997    0.576934452    0.0    -0.0    0.0
F    0.098209139    1.95091929    -3.993150333    -0.0    -0.0    0.0
F    -0.53280381    1.965891753    -0.925830049    -0.0    0.0    -0.0
F    2.584290557    2.422708512    -0.33102544300000003    0.0    0.0    -0.0
F    1.187040239    -0.03993859499999999    -1.834960254    -0.0    -0.0    -0.0
F    0.484608117    1.570207429    1.3824470389999999    -0.0    -0.0    0.0
F    2.377055969    0.523157076    3.4679534370000002    -0.0    -0.0    0.0
F    0.204975675    -1.0170743519999998    2.757159071    -0.0    -0.0    -0.0
