12
Properties=species:S:1:pos:R:3:forces:R:3 energy=-182.46988698 pbc="F F F"
Al    -1.5541482610000001    2.8511309199999997    -1.478836791    10.509568    -6.728068    -8.560793
Al    -0.611799855    -0.23460529399999996    -2.237555374    -0.434468    2.983712    0.12937
Al    -2.244312476    -0.06566091800000001    -0.37492933700000003    1.703872    -1.693308    -2.223748
F    -0.866142041    3.489218136    -0.386973157    -0.079614    0.585982    0.869579
F    -2.688834747    3.0431789929999997    -2.153472092    -0.99567    0.268931    0.032648
F    -1.29990148    -1.824923527    -1.847624461    -0.492983    0.051789    0.673817
F    -2.5523629619999997    1.129660583    0.09140006199999999    -1.201934    0.123445    1.78872
F    -3.279249763    -1.3198571319999999    0.634006753    -0.092896    0.588175    0.18105
F    0.725757898    -0.591765341    -3.7649120039999997    0.076625    -0.065645    -0.037583
F    -0.685820425    2.378362414    -2.069913031    -7.652207    4.671736    5.836492
F    -2.430463657    0.48932365099999997    -2.2965167280000003    -0.758534    -0.466712    0.497519
F    -0.346821368    0.159484239    -0.44910690799999997    -0.581759    -0.320037    0.812929
