      12
SCF Done            -182.46988695
Al           -1.449670261         2.610424920        -1.505608791
Al           -0.515552855         0.072654706        -2.365167374
Al           -2.172308476        -0.402317918        -0.546408337
F            -0.766802041         3.683816136        -0.151519157
F            -3.026454747         3.174409993        -2.305488092
F            -1.394839480        -1.678571527        -1.701410461
F            -2.628232962         1.345579583         0.211534062
F            -3.247856763        -1.292455132         0.603198753
F             0.622548898        -0.526451341        -3.644164004
F            -0.497754425         1.945612414        -2.218428031
F            -2.479586657         0.469347651        -2.277087728
F            -0.329854368         0.153261239        -0.371437908
