12
Properties=species:S:1:pos:R:3:forces:R:3 energy=-185.29075718 pbc="F F F"
Al    0.281577172    -2.3047406109999997    -1.821638461    0.040356    0.155465    0.036714
Al    2.01295633    -0.545882456    -0.8180578239999999    -0.14508    -0.032925    -0.070775
Al    -0.319484606    0.290745103    -1.796939283    0.10473    -0.122526    0.034065
F    3.599588088    -0.185815816    -0.044047023000000005    -0.03001    -0.006809    -0.01464
F    -0.159731174    -4.004803693    -2.223108636    0.008345    0.032149    0.007592
F    1.8502118379999999    -1.394961076    -2.585761789    -0.359678    0.702365    -0.610434
F    1.486173895    0.177017739    -2.5708018200000002    -0.016899    -0.777817    -0.624518
F    -1.4648084220000002    1.630741531    -2.169479911    0.021662    -0.025342    0.007047
F    -0.761708286    -1.190707452    -0.579591969    0.574548    0.125383    0.805908
F    0.437547826    -0.888250709    -3.178630381    0.970493    0.225242    -0.052187
F    0.286916796    -0.12543760200000004    0.028236197999999997    -0.412842    -0.877674    0.233574
F    0.6509557340000001    -1.6974178100000001    0.013277627    -0.755622    0.602507    0.247659
