      12
SCF Done            -185.50084610
Al            0.273728072        -2.334978111        -1.828779161
Al            2.041175730        -0.539477856        -0.804291224
Al           -0.339854906         0.314578003        -1.803565183
F             3.632610688        -0.178322216        -0.027937523
F            -0.168916074        -4.040185793        -2.231464636
F             2.149767238        -1.899550176        -2.218220689
F             1.534984195         0.755188539        -2.192957620
F            -1.488645422         1.658630031        -2.177233411
F            -1.218441886        -1.291618652        -1.090121369
F            -0.235920574        -1.043823609        -3.219449281
F             0.552462896         0.507393198        -0.063629402
F             1.167245934        -2.147345210        -0.088892773
