12
Properties=species:S:1:pos:R:3:forces:R:3 energy=-185.38669151 pbc="F F F"
Al    0.14627177200000002    -2.349991411    -1.5855092610000001    -0.201751    1.526438    1.711538
Al    2.0534073299999998    -0.835545056    -0.865947624    -0.387804    -0.431475    -0.726445
Al    -0.07972520599999999    0.588155503    -1.9243236830000001    0.504678    -0.799391    -0.442883
F    3.504681488    0.09064078400000003    0.006854377000000009    0.249033    0.04337    0.428004
F    -0.10427497399999999    -3.9671870929999997    -2.550376236    0.014421    -1.469421    -1.290644
F    1.895563238    -2.059164676    -2.3864589890000003    0.015062    0.189867    0.084746
F    2.008318295    0.583252539    -2.22609602    0.034165    0.050573    -0.015841
F    -1.842365622    1.417384331    -2.072995711    -0.471518    0.341194    0.188167
F    -1.290499686    -1.507052852    -0.9394485690000001    0.099249    0.139136    0.010922
F    -0.136074974    -0.8304967089999999    -3.057430981    0.057232    0.169235    0.10278
F    0.48818939600000005    0.397749998    -0.226383402    0.05901    0.076757    -0.036392
F    1.228936534    -1.76007021    0.06990982700000001    0.028223    0.163717    -0.013952
