12
Properties=species:S:1:pos:R:3:forces:R:3 energy=-186.14606963 pbc="F F F"
Al    -0.287450857    1.5219427959999998    2.525641221    -0.152482    -0.370978    0.63093
Al    2.4006069959999996    2.494590825    1.705552075    -0.395305    -0.464708    -0.361409
Al    1.2365358579999999    2.439226181    -0.45853635299999995    -0.19035    -0.448613    0.63758
F    0.789243752    3.1326430189999996    2.560164332    -0.122443    0.237286    -0.324188
F    -1.387707247    3.0395318430000002    1.860872695    0.086908    0.542794    -0.426366
F    -0.31641116    -0.364965318    2.69378446    0.332967    -0.37508    -0.134044
F    1.7311147690000002    0.7415135850000001    1.8756627339999998    -0.175466    -0.102109    -0.041746
F    3.2634906420000003    2.334796572    -0.217427754    0.50444    0.480243    -0.05067
F    1.200574714    3.060127052    -2.159255404    0.05081    0.100103    0.074345
F    2.049754268    4.026852187    0.429009365    0.213843    0.074058    -0.145022
F    3.9876162659999994    3.100856211    2.2947473680000003    -0.046856    0.054346    -0.131485
F    -0.13331959999999998    1.925649368    0.603096605    -0.106066    0.272656    0.272075
