12
Properties=species:S:1:pos:R:3:forces:R:3 energy=-186.10370354 pbc="F F F"
Al    -1.693837261    2.6220670200000002    -1.212389891    0.058095    0.043009    0.060915
Al    -0.31280895499999994    0.040607606000000004    -2.579164374    0.613438    0.17051    -0.659641
Al    -2.410854776    -0.38627131800000003    -0.276960237    -0.608536    -0.07812    0.681241
F    -0.709920941    3.731369436    -0.11003805700000001    0.032706    0.049719    0.039025
F    -3.028764447    3.135925793    -2.333656192    0.033253    -0.090677    0.013491
F    -1.36729568    -0.961248827    -1.579231361    0.014683    1.478473    0.287522
F    -2.376824962    1.3966352830000002    -0.184669038    0.353128    -0.235176    -0.577084
F    -3.526857363    -1.588589832    0.8982910529999999    -0.426864    -0.428349    0.452702
F    0.931700998    -0.6814281409999999    -3.994123504    0.473408    -0.245176    -0.535175
F    -0.5419889250000001    1.769960514    -2.198051231    -0.482788    -0.405255    0.340175
F    -2.422626157    0.41039955100000003    -2.2866424280000004    0.055545    -0.101715    0.03176
F    -0.372634568    0.06671763900000001    -0.482168808    -0.116069    -0.157244    -0.134933
