      12
SCF Done            -169.59502647
Al           -1.697765189         2.560475085        -1.227390806
Al           -0.501263970         0.008793604        -2.379055356
Al           -2.230115786        -0.342967312        -0.481971249
F            -0.754187880         3.690213511        -0.158010973
F            -3.013638370         3.168897866        -2.313758119
F            -1.376272688        -1.544883837        -1.695631354
F            -2.496569880         1.431395310         0.005103985
F            -3.289303530        -1.343715746         0.647122964
F             0.667815890        -0.538580060        -3.695058600
F            -0.375904893         1.862876522        -2.321920122
F            -2.450149957         0.466779551        -2.301271428
F            -0.313124563         0.146463580        -0.413149788
