      12
SCF Done            -169.14017702
Al           -0.510059638         0.999964760        -1.912104736
Al           -0.469921381         1.069302091         1.268594601
Al           -3.209514903         0.416021678        -1.940458409
F            -3.475259455         0.330288136        -3.424322161
F            -1.298626558        -0.538372904        -1.837011338
F            -1.863900693         2.077201389        -1.886896761
F            -2.005238977         0.722245855         0.469167709
F             0.654342416         1.284780097        -0.173125975
F            -0.299560181         2.753546404         1.995132571
F             0.374786008        -0.366719671         2.054640958
F            -4.188348567         0.228818926        -0.664203313
F             0.771301819         1.251228903        -3.257610444
