12
Properties=species:S:1:pos:R:3:forces:R:3 energy=-186.39349496 pbc="F F F"
Al    -0.062546657    1.479867596    2.0725515210000003    0.0    -0.0    -1e-06
Al    2.547229096    2.471817025    1.790115575    1e-06    0.0    0.0
Al    1.3180276579999999    2.986910581    -0.581684653    -0.0    0.0    -0.0
F    1.0501453520000001    2.838751519    2.963437832    0.0    0.0    0.0
F    -1.549814947    2.568299543    2.298769095    -0.0    -0.0    -0.0
F    -0.49131846    -0.24632621799999999    2.43875726    0.0    -0.0    -0.0
F    1.8062023690000002    0.739519585    1.705602234    0.0    -0.0    -0.0
F    2.932128342    2.016803872    -0.176135454    -0.0    -0.0    -0.0
F    1.020711714    3.575444952    -2.2784188039999997    0.0    0.0    -0.0
F    1.761683868    4.0851835869999995    0.884886265    -0.0    0.0    0.0
F    4.151991966000001    2.883262611    2.524222168    0.0    0.0    -0.0
F    -0.0372084    1.9607023680000002    0.165432505    -0.0    0.0    1e-06
