12
Properties=species:S:1:pos:R:3:forces:R:3 energy=-186.30340552 pbc="F F F"
Al    -1.7488955609999999    2.59439672    -0.924311691    0.132795    0.085727    0.056049
Al    -0.439433355    0.024958506    -1.870589474    0.653168    0.115059    -0.199727
Al    -2.4410625759999998    -0.302991518    -0.338859137    -0.775171    -0.124538    0.264671
F    -0.935378741    3.684666736    0.24836194299999997    0.122582    0.150704    0.182892
F    -2.884790047    3.243404793    -2.247224792    -0.26084    0.123887    -0.282692
F    -1.42490588    -1.6459049270000001    -1.466015461    -0.002528    -0.177349    -0.046031
F    -2.778123562    1.479472483    0.174218062    -0.122386    -0.073479    0.157151
F    -3.6330092630000004    -1.266140532    0.5836464530000001    -0.145741    -0.105761    0.16472
F    0.881151298    -0.5018811409999999    -3.077372104    0.210971    -0.057128    -0.224974
F    -0.221974825    1.9122352139999998    -1.898838231    0.145496    -0.021789    -0.080381
F    -2.375222357    0.5307263510000001    -2.184193428    -0.292657    0.043708    -0.172534
F    -0.511629868    0.151984239    0.034704392    0.334312    0.04096    0.180855
