12
Properties=species:S:1:pos:R:3:forces:R:3 energy=-186.15943817 pbc="F F F"
Al    0.022532643000000005    1.458531796    2.100153421    0.750204    1.898649    -0.332527
Al    2.486096196    2.720556825    1.8148621749999998    0.430708    0.350001    0.072571
Al    1.351926558    2.825679981    -0.600748653    0.054988    -0.154535    0.35178
F    0.870916052    3.396457119    2.514971032    -0.102116    0.044206    0.060782
F    -1.493663947    2.371434943    2.883011195    -0.544269    0.547234    0.109572
F    -0.53144106    -0.389445918    1.74075806    -0.596359    -2.294139    -0.23019
F    1.7374357690000002    0.973443485    2.345117434    0.223408    -0.325708    0.042117
F    2.701124142    1.639959972    0.155894046    0.03063    -0.098223    -0.170027
F    1.123614514    3.024397652    -2.397731204    -0.089059    0.003989    -0.279926
F    2.113444168    4.2038485869999995    0.44590206499999996    -0.00528    0.166628    0.039708
F    4.182881365999999    2.950723311    2.495881868    -0.109459    -0.006728    -0.052191
F    -0.128719    2.171968068    0.30308390500000004    -0.043395    -0.131373    0.388331
