12
Properties=species:S:1:pos:R:3:forces:R:3 energy=-187.01433686 pbc="F F F"
Al    0.282962693    -0.469184158    1.6839187389999999    -0.417152    -0.033761    -0.237629
Al    2.299459365    -1.9635473719999998    -0.6074579969999999    0.179307    -0.158753    -0.258772
Al    -0.8625389809999999    -1.7817097579999999    -1.018258143    0.162937    0.28089    0.477938
F    3.5166352069999998    -0.582101793    -0.91940968    0.231764    -0.226183    -0.16624
F    -2.1375773540000003    -0.439991888    -1.449105597    0.040032    0.287925    0.15924
F    3.0278538950000002    -3.634179694    -0.332384643    0.301372    0.042738    -0.205295
F    -0.901992066    -3.622964202    -1.24634272    0.145616    -0.187205    0.24917
F    1.602577497    -1.550221893    1.007304402    -0.093268    -0.031428    -0.044153
F    0.858674164    -1.700611882    -1.771010165    -0.001555    0.00062    0.01068
F    0.20849725200000002    -1.0908525629999999    3.4150142889999997    -0.276182    -0.033419    -0.017718
F    0.381371071    1.3092167989999999    1.343209636    -0.174937    0.008109    -0.020324
F    -1.0172513680000002    -1.341882883    0.753822314    -0.097934    0.050468    0.053108
