12
-186.39349496
Al		-0.076574483		1.639561432		2.15633541
Al		2.525716966		2.605280095		1.763414565
Al		1.356332054		2.667117744		-0.647728844
F		1.002726548		3.092713436		2.833610173
F		-1.575231723		2.686471422		2.177174586
F		-0.495322501		-0.026704886		2.75349141
F		1.810182383		0.866353673		1.935550595
F		2.963242085		1.857796463		-0.073548946
F		1.088795559		3.034363173		-2.397262532
F		1.747527194		4.016435717		0.632554447
F		4.107616938		3.126836747		2.46350926
F		-0.008308031		1.79911524		0.212151853
