12
-186.39349496
Al		-0.076048031		1.639077376		2.156774526
Al		2.525859714		2.604537323		1.762491761
Al		1.355523402		2.668179008		-0.64800532
F		1.003327016		3.092604196		2.832842697
F		-1.573997259		2.687164182		2.177523946
F		-0.496206913		-0.026829134		2.753789482
F		1.810492395		0.865577705		1.936157927
F		2.962507981		1.858135907		-0.073860358
F		1.089273059		3.034184069		-2.39793722
F		1.747428114		4.016983369		0.632354919
F		4.106320126		3.127384415		2.465028492
F		-0.007749887		1.798373572		0.212236797
