12
-186.39349496
Al		-0.075389966		1.638472306		2.157323421
Al		2.526038149		2.603608858		1.761338256
Al		1.354512587		2.669505588		-0.648350915
F		1.004077601		3.092467646		2.831883352
F		-1.572454179		2.688030132		2.177960646
F		-0.497312428		-0.026984444		2.754162072
F		1.81087991		0.864607745		1.936917092
F		2.961590351		1.858560212		-0.074249623
F		1.089869934		3.033960189		-2.39878058
F		1.747304264		4.017667934		0.632105509
F		4.104699111		3.128069		2.466927532
F		-0.007052207		1.797446487		0.212342977
