12
-186.39349496
Al		-0.075258353		1.638351292		2.1574332
Al		2.526073836		2.603423165		1.761107555
Al		1.354310424		2.669770904		-0.648420034
F		1.004227718		3.092440336		2.831691483
F		-1.572145563		2.688203322		2.178047986
F		-0.497533531		-0.027015506		2.75423659
F		1.810957413		0.864413753		1.937068925
F		2.961406825		1.858645073		-0.074327476
F		1.089989309		3.033915413		-2.398949252
F		1.747279494		4.017804847		0.632055627
F		4.104374908		3.128205917		2.46730734
F		-0.006912671		1.79726107		0.212364213
