12
-186.39349496
Al		-0.074731901		1.637867236		2.157872316
Al		2.526216584		2.602680393		1.760184751
Al		1.353501772		2.670832168		-0.64869651
F		1.004828186		3.092331096		2.830924007
F		-1.570911099		2.688896082		2.178397346
F		-0.498417943		-0.027139754		2.754534662
F		1.811267425		0.863637785		1.937676257
F		2.960672721		1.858984517		-0.074638888
F		1.090466809		3.033736309		-2.39962394
F		1.747180414		4.018352499		0.631856099
F		4.103078096		3.128753585		2.468826572
F		-0.006354527		1.796519402		0.212449157
