12
-186.39349496
Al		-0.074600288		1.637746222		2.157982095
Al		2.526252271		2.6024947		1.75995405
Al		1.353299609		2.671097484		-0.648765629
F		1.004978303		3.092303786		2.830732138
F		-1.570602483		2.689069272		2.178484686
F		-0.498639046		-0.027170816		2.75460918
F		1.811344928		0.863443793		1.93782809
F		2.960489195		1.859069378		-0.074716741
F		1.090586184		3.033691533		-2.399792612
F		1.747155644		4.018489412		0.631806217
F		4.102753893		3.128890502		2.46920638
F		-0.006214991		1.796333985		0.212470393
