12
-186.39349496
Al		-0.074468675		1.637625208		2.158091874
Al		2.526287958		2.602309007		1.759723349
Al		1.353097446		2.6713628		-0.648834748
F		1.00512842		3.092276476		2.830540269
F		-1.570293867		2.689242462		2.178572026
F		-0.498860149		-0.027201878		2.754683698
F		1.811422431		0.863249801		1.937979923
F		2.960305669		1.859154239		-0.074794594
F		1.090705559		3.033646757		-2.399961284
F		1.747130874		4.018626325		0.631756335
F		4.10242969		3.129027419		2.469586188
F		-0.006075455		1.796148568		0.212491629
