12
-186.39349496
Al		-0.077495774		1.64040853		2.155566957
Al		2.525467157		2.606579946		1.765029472
Al		1.357747195		2.665260532		-0.647245011
F		1.001675729		3.092904606		2.834953256
F		-1.577392035		2.685259092		2.176563206
F		-0.49377478		-0.026487452		2.752969784
F		1.809639862		0.867711617		1.934487764
F		2.964526767		1.857202436		-0.073003975
F		1.087959934		3.034676605		-2.396081828
F		1.747700584		4.015477326		0.632903621
F		4.109886359		3.125878328		2.460850604
F		-0.009284783		1.800413159		0.212003201
