12
-186.39349496
Al		-0.073284158		1.636536082		2.159079885
Al		2.526609141		2.60063777		1.75764704
Al		1.351277979		2.673750644		-0.649456819
F		1.006479473		3.092030686		2.828813448
F		-1.567516323		2.690801172		2.179358086
F		-0.500850076		-0.027481436		2.75535436
F		1.812119958		0.861503873		1.93934642
F		2.958653935		1.859917988		-0.075495271
F		1.091779934		3.033243773		-2.401479332
F		1.746907944		4.019858542		0.631307397
F		4.099511863		3.130259672		2.47300446
F		-0.004819631		1.794479815		0.212682753
