12
-186.39349496
Al		-0.073152545		1.636415068		2.159189664
Al		2.526644828		2.600452077		1.757416339
Al		1.351075816		2.67401596		-0.649525938
F		1.00662959		3.092003376		2.828621579
F		-1.567207707		2.690974362		2.179445426
F		-0.501071179		-0.027512498		2.755428878
F		1.812197461		0.861309881		1.939498253
F		2.958470409		1.860002849		-0.075573124
F		1.091899309		3.033198997		-2.401648004
F		1.746883174		4.019995455		0.631257515
F		4.09918766		3.130396589		2.473384268
F		-0.004680095		1.794294398		0.212703989
