12
-186.39349496
Al		-0.072889319		1.63617304		2.159409222
Al		2.526716202		2.600080691		1.756954937
Al		1.35067149		2.674546592		-0.649664176
F		1.006929824		3.091948756		2.828237841
F		-1.566590475		2.691320742		2.179620106
F		-0.501513385		-0.027574622		2.755577914
F		1.812352467		0.860921897		1.939801919
F		2.958103357		1.860172571		-0.07572883
F		1.092138059		3.033109445		-2.401985348
F		1.746833634		4.020269281		0.631157751
F		4.098539254		3.130670423		2.474143884
F		-0.004401023		1.793923564		0.212746461
