12
-186.39349496
Al		-0.072757706		1.636052026		2.159519001
Al		2.526751889		2.599894998		1.756724236
Al		1.350469327		2.674811908		-0.649733295
F		1.007079941		3.091921446		2.828045972
F		-1.566281859		2.691493932		2.179707446
F		-0.501734488		-0.027605684		2.755652432
F		1.81242997		0.860727905		1.939953752
F		2.957919831		1.860257432		-0.075806683
F		1.092257434		3.033064669		-2.40215402
F		1.746808864		4.020406194		0.631107869
F		4.098215051		3.13080734		2.474523692
F		-0.004261487		1.793738147		0.212767697
