12
-186.39349496
Al		-0.07249448		1.635809998		2.159738559
Al		2.526823263		2.599523612		1.756262834
Al		1.350065001		2.67534254		-0.649871533
F		1.007380175		3.091866826		2.827662234
F		-1.565664627		2.691840312		2.179882126
F		-0.502176694		-0.027667808		2.755801468
F		1.812584976		0.860339921		1.940257418
F		2.957552779		1.860427154		-0.075962389
F		1.092496184		3.032975117		-2.402491364
F		1.746759324		4.02068002		0.631008105
F		4.097566645		3.131081174		2.475283308
F		-0.003982415		1.793367313		0.212810169
