12
-186.39349496
Al		-0.072231254		1.63556797		2.159958117
Al		2.526894637		2.599152226		1.755801432
Al		1.349660675		2.675873172		-0.650009771
F		1.007680409		3.091812206		2.827278496
F		-1.565047395		2.692186692		2.180056806
F		-0.5026189		-0.027729932		2.755950504
F		1.812739982		0.859951937		1.940561084
F		2.957185727		1.860596876		-0.076118095
F		1.092734934		3.032885565		-2.402828708
F		1.746709784		4.020953846		0.630908341
F		4.096918239		3.131355008		2.476042924
F		-0.003703343		1.792996479		0.212852641
