12
-186.39349496
Al		-0.071968028		1.635325942		2.160177675
Al		2.526966011		2.59878084		1.75534003
Al		1.349256349		2.676403804		-0.650148009
F		1.007980643		3.091757586		2.826894758
F		-1.564430163		2.692533072		2.180231486
F		-0.503061106		-0.027792056		2.75609954
F		1.812894988		0.859563953		1.94086475
F		2.956818675		1.860766598		-0.076273801
F		1.092973684		3.032796013		-2.403166052
F		1.746660244		4.021227672		0.630808577
F		4.096269833		3.131628842		2.47680254
F		-0.003424271		1.792625645		0.212895113
