12
-186.39349496
Al		-0.071704802		1.635083914		2.160397233
Al		2.527037385		2.598409454		1.754878628
Al		1.348852023		2.676934436		-0.650286247
F		1.008280877		3.091702966		2.82651102
F		-1.563812931		2.692879452		2.180406166
F		-0.503503312		-0.02785418		2.756248576
F		1.813049994		0.859175969		1.941168416
F		2.956451623		1.86093632		-0.076429507
F		1.093212434		3.032706461		-2.403503396
F		1.746610704		4.021501498		0.630708813
F		4.095621427		3.131902676		2.477562156
F		-0.003145199		1.792254811		0.212937585
