12
-186.39349496
Al		-0.071573189		1.6349629		2.160507012
Al		2.527073072		2.598223761		1.754647927
Al		1.34864986		2.677199752		-0.650355366
F		1.008430994		3.091675656		2.826319151
F		-1.563504315		2.693052642		2.180493506
F		-0.503724415		-0.027885242		2.756323094
F		1.813127497		0.858981977		1.941320249
F		2.956268097		1.861021181		-0.07650736
F		1.093331809		3.032661685		-2.403672068
F		1.746585934		4.021638411		0.630658931
F		4.095297224		3.132039593		2.477941964
F		-0.003005663		1.792069394		0.212958821
