12
-186.39349496
Al		-0.071046737		1.634478844		2.160946128
Al		2.52721582		2.597480989		1.753725123
Al		1.347841208		2.678261016		-0.650631842
F		1.009031462		3.091566416		2.825551675
F		-1.562269851		2.693745402		2.180842866
F		-0.504608827		-0.02800949		2.756621166
F		1.813437509		0.858206009		1.941927581
F		2.955533993		1.861360625		-0.076818772
F		1.093809309		3.032482581		-2.404346756
F		1.746486854		4.022186063		0.630459403
F		4.094000412		3.132587261		2.479461196
F		-0.002447519		1.791327726		0.213043765
