12
-186.39349496
Al		-0.070915124		1.63435783		2.161055907
Al		2.527251507		2.597295296		1.753494422
Al		1.347639045		2.678526332		-0.650700961
F		1.009181579		3.091539106		2.825359806
F		-1.561961235		2.693918592		2.180930206
F		-0.50482993		-0.028040552		2.756695684
F		1.813515012		0.858012017		1.942079414
F		2.955350467		1.861445486		-0.076896625
F		1.093928684		3.032437805		-2.404515428
F		1.746462084		4.022322976		0.630409521
F		4.093676209		3.132724178		2.479841004
F		-0.002307983		1.791142309		0.213065001
