12
-186.39349496
Al		-0.070125446		1.633631746		2.161714581
Al		2.527465629		2.596181138		1.752110216
Al		1.346426067		2.680118228		-0.651115675
F		1.010082281		3.091375246		2.824208592
F		-1.560109539		2.694957732		2.181454246
F		-0.506156548		-0.028226924		2.757142792
F		1.81398003		0.856848065		1.942990412
F		2.954249311		1.861954652		-0.077363743
F		1.094644934		3.032169149		-2.40552746
F		1.746313464		4.023144454		0.630110229
F		4.091730991		3.13354568		2.482119852
F		-0.001470767		1.790029807		0.213192417
