12
-186.39349496
Al		-0.06986222		1.633389718		2.161934139
Al		2.527537003		2.595809752		1.751648814
Al		1.346021741		2.68064886		-0.651253913
F		1.010382515		3.091320626		2.823824854
F		-1.559492307		2.695304112		2.181628926
F		-0.506598754		-0.028289048		2.757291828
F		1.814135036		0.856460081		1.943294078
F		2.953882259		1.862124374		-0.077519449
F		1.094883684		3.032079597		-2.405864804
F		1.746263924		4.02341828		0.630010465
F		4.091082585		3.133819514		2.482879468
F		-0.001191695		1.789658973		0.213234889
