12
-186.39349496
Al		-0.069598994		1.63314769		2.162153697
Al		2.527608377		2.595438366		1.751187412
Al		1.345617415		2.681179492		-0.651392151
F		1.010682749		3.091266006		2.823441116
F		-1.558875075		2.695650492		2.181803606
F		-0.50704096		-0.028351172		2.757440864
F		1.814290042		0.856072097		1.943597744
F		2.953515207		1.862294096		-0.077675155
F		1.095122434		3.031990045		-2.406202148
F		1.746214384		4.023692106		0.629910701
F		4.090434179		3.134093348		2.483639084
F		-0.000912623		1.789288139		0.213277361
