12
-186.39349496
Al		-0.068940929		1.63254262		2.162702592
Al		2.527786812		2.594509901		1.750033907
Al		1.3446066		2.682506072		-0.651737746
F		1.011433334		3.091129456		2.822481771
F		-1.557331995		2.696516442		2.182240306
F		-0.508146475		-0.028506482		2.757813454
F		1.814677557		0.855102137		1.944356909
F		2.952597577		1.862718401		-0.07806442
F		1.095719309		3.031766165		-2.407045508
F		1.746090534		4.024376671		0.629661291
F		4.088813164		3.134777933		2.485538124
F		-0.000214943		1.788361054		0.213383541
