12
-186.39349496
Al		-0.068677703		1.632300592		2.16292215
Al		2.527858186		2.594138515		1.749572505
Al		1.344202274		2.683036704		-0.651875984
F		1.011733568		3.091074836		2.822098033
F		-1.556714763		2.696862822		2.182414986
F		-0.508588681		-0.028568606		2.75796249
F		1.814832563		0.854714153		1.944660575
F		2.952230525		1.862888123		-0.078220126
F		1.095958059		3.031676613		-2.407382852
F		1.746040994		4.024650497		0.629561527
F		4.088164758		3.135051767		2.48629774
F		6.4129e-05		1.78799022		0.213426013
