12
-186.39349496
Al		-0.068151251		1.631816536		2.163361266
Al		2.528000934		2.593395743		1.748649701
Al		1.343393622		2.684097968		-0.65215246
F		1.012334036		3.090965596		2.821330557
F		-1.555480299		2.697555582		2.182764346
F		-0.509473093		-0.028692854		2.758260562
F		1.815142575		0.853938185		1.945267907
F		2.951496421		1.863227567		-0.078531538
F		1.096435559		3.031497509		-2.40805754
F		1.745941914		4.025198149		0.629361999
F		4.086867946		3.135599435		2.487816972
F		0.000622273		1.787248552		0.213510957
