12
-186.39349496
Al		-0.067493186		1.631211466		2.163910161
Al		2.528179369		2.592467278		1.747496196
Al		1.342382807		2.685424548		-0.652498055
F		1.013084621		3.090829046		2.820371212
F		-1.553937219		2.698421532		2.183201046
F		-0.510578608		-0.028848164		2.758633152
F		1.81553009		0.852968225		1.946027072
F		2.950578791		1.863651872		-0.078920803
F		1.097032434		3.031273629		-2.4089009
F		1.745818064		4.025882714		0.629112589
F		4.085246931		3.13628402		2.489716012
F		0.001319953		1.786321467		0.213617137
