12
-186.39349496
Al		-0.066966734		1.63072741		2.164349277
Al		2.528322117		2.591724506		1.746573392
Al		1.341574155		2.686485812		-0.652774531
F		1.013685089		3.090719806		2.819603736
F		-1.552702755		2.699114292		2.183550406
F		-0.51146302		-0.028972412		2.758931224
F		1.815840102		0.852192257		1.946634404
F		2.949844687		1.863991316		-0.079232215
F		1.097509934		3.031094525		-2.409575588
F		1.745718984		4.026430366		0.628913061
F		4.083950119		3.136831688		2.491235244
F		0.001878097		1.785579799		0.213702081
