12
-186.39349496
Al		-0.066835121		1.630606396		2.164459056
Al		2.528357804		2.591538813		1.746342691
Al		1.341371992		2.686751128		-0.65284365
F		1.013835206		3.090692496		2.819411867
F		-1.552394139		2.699287482		2.183637746
F		-0.511684123		-0.029003474		2.759005742
F		1.815917605		0.851998265		1.946786237
F		2.949661161		1.864076177		-0.079310068
F		1.097629309		3.031049749		-2.40974426
F		1.745694214		4.026567279		0.628863179
F		4.083625916		3.136968605		2.491615052
F		0.002017633		1.785394382		0.213723317
