12
-186.39349496
Al		-0.066440282		1.630243354		2.164788393
Al		2.528464865		2.590981734		1.745650588
Al		1.340765503		2.687547076		-0.653051007
F		1.014285557		3.090610566		2.81883626
F		-1.551468291		2.699807052		2.183899766
F		-0.512347432		-0.02909666		2.759229296
F		1.816150114		0.851416289		1.947241736
F		2.949110583		1.86433076		-0.079543627
F		1.097987434		3.030915421		-2.410250276
F		1.745619904		4.026978018		0.628713533
F		4.082653307		3.137379356		2.492754476
F		0.002436241		1.784838131		0.213787025
