12
-186.39349496
Al		-0.066308669		1.63012234		2.164898172
Al		2.528500552		2.590796041		1.745419887
Al		1.34056334		2.687812392		-0.653120126
F		1.014435674		3.090583256		2.818644391
F		-1.551159675		2.699980242		2.183987106
F		-0.512568535		-0.029127722		2.759303814
F		1.816227617		0.851222297		1.947393569
F		2.948927057		1.864415621		-0.07962148
F		1.098106809		3.030870645		-2.410418948
F		1.745595134		4.027114931		0.628663651
F		4.082329104		3.137516273		2.493134284
F		0.002575777		1.784652714		0.213808261
