12
-186.39349496
Al		-0.065387378		1.629275242		2.165666625
Al		2.528750361		2.58949619		1.74380498
Al		1.339148199		2.689669604		-0.653603959
F		1.015486493		3.090392086		2.817301308
F		-1.548999363		2.701192572		2.184598486
F		-0.514116256		-0.029345156		2.75982544
F		1.816770138		0.849864353		1.9484564
F		2.947642375		1.865009648		-0.080166451
F		1.098942434		3.030557213		-2.411599652
F		1.745421744		4.028073322		0.628314477
F		4.080059683		3.138474692		2.49579294
F		0.003552529		1.783354795		0.213956913
