12
-186.39349496
Al		-0.065124152		1.629033214		2.165886183
Al		2.528821735		2.589124804		1.743343578
Al		1.338743873		2.690200236		-0.653742197
F		1.015786727		3.090337466		2.81691757
F		-1.548382131		2.701538952		2.184773166
F		-0.514558462		-0.02940728		2.759974476
F		1.816925144		0.849476369		1.948760066
F		2.947275323		1.86517937		-0.080322157
F		1.099181184		3.030467661		-2.411936996
F		1.745372204		4.028347148		0.628214713
F		4.079411277		3.138748526		2.496552556
F		0.003831601		1.782983961		0.213999385
