12
-186.39349496
Al		-0.078022226		1.640892586		2.155127841
Al		2.525324409		2.607322718		1.765952276
Al		1.358555847		2.664199268		-0.646968535
F		1.001075261		3.093013846		2.835720732
F		-1.578626499		2.684566332		2.176213846
F		-0.492890368		-0.026363204		2.752671712
F		1.80932985		0.868487585		1.933880432
F		2.965260871		1.856862992		-0.072692563
F		1.087482434		3.034855709		-2.39540714
F		1.747799664		4.014929674		0.633103149
F		4.111183171		3.12533066		2.459331372
F		-0.009842927		1.801154827		0.211918257
