12
-186.39349496
Al		-0.079206743		1.641981712		2.15413983
Al		2.525003226		2.608993955		1.768028585
Al		1.360375314		2.661811424		-0.646346464
F		0.999724208		3.093259636		2.837447553
F		-1.581404043		2.683007622		2.175427786
F		-0.490900441		-0.026083646		2.75200105
F		1.808632323		0.870233513		1.932513935
F		2.966912605		1.856099243		-0.071991886
F		1.086408059		3.035258693		-2.393889092
F		1.748022594		4.013697457		0.633552087
F		4.114100998		3.124098407		2.4559131
F		-0.011098751		1.80282358		0.211727133
