12
-186.39349496
Al		-0.079338356		1.642102726		2.154030051
Al		2.524967539		2.609179648		1.768259286
Al		1.360577477		2.661546108		-0.646277345
F		0.999574091		3.093286946		2.837639422
F		-1.581712659		2.682834432		2.175340446
F		-0.490679338		-0.026052584		2.751926532
F		1.80855482		0.870427505		1.932362102
F		2.967096131		1.856014382		-0.071914033
F		1.086288684		3.035303469		-2.39372042
F		1.748047364		4.013560544		0.633601969
F		4.114425201		3.12396149		2.455533292
F		-0.011238287		1.803008997		0.211705897
