12
-186.39349496
Al		-0.079469969		1.64222374		2.153920272
Al		2.524931852		2.609365341		1.768489987
Al		1.36077964		2.661280792		-0.646208226
F		0.999423974		3.093314256		2.837831291
F		-1.582021275		2.682661242		2.175253106
F		-0.490458235		-0.026021522		2.751852014
F		1.808477317		0.870621497		1.932210269
F		2.967279657		1.855929521		-0.07183618
F		1.086169309		3.035348245		-2.393551748
F		1.748072134		4.013423631		0.633651851
F		4.114749404		3.123824573		2.455153484
F		-0.011377823		1.803194414		0.211684661
