12
-186.39349496
Al		-0.080522873		1.643191852		2.15304204
Al		2.524646356		2.610850885		1.770335595
Al		1.362396944		2.659158264		-0.645655274
F		0.998223038		3.093532736		2.839366243
F		-1.584490203		2.681275722		2.174554386
F		-0.488689411		-0.025773026		2.75125587
F		1.807857293		0.872173433		1.930995605
F		2.968747865		1.855250633		-0.071213356
F		1.085214309		3.035706453		-2.392202372
F		1.748270294		4.012328327		0.634050907
F		4.117343028		3.122729237		2.45211502
F		-0.012494111		1.80467775		0.211514773
