12
-186.39349496
Al		-0.080654486		1.643312866		2.152932261
Al		2.524610669		2.611036578		1.770566296
Al		1.362599107		2.658892948		-0.645586155
F		0.998072921		3.093560046		2.839558112
F		-1.584798819		2.681102532		2.174467046
F		-0.488468308		-0.025741964		2.751181352
F		1.80777979		0.872367425		1.930843772
F		2.968931391		1.855165772		-0.071135503
F		1.085094934		3.035751229		-2.3920337
F		1.748295064		4.012191414		0.634100789
F		4.117667231		3.12259232		2.451735212
F		-0.012633647		1.804863167		0.211493537
