12
-186.39349496
Al		-0.080917712		1.643554894		2.152712703
Al		2.524539295		2.611407964		1.771027698
Al		1.363003433		2.658362316		-0.645447917
F		0.997772687		3.093614666		2.83994185
F		-1.585416051		2.680756152		2.174292366
F		-0.488026102		-0.02567984		2.751032316
F		1.807624784		0.872755409		1.930540106
F		2.969298443		1.85499605		-0.070979797
F		1.084856184		3.035840781		-2.391696356
F		1.748344604		4.011917588		0.634200553
F		4.118315637		3.122318486		2.450975596
F		-0.012912719		1.805234001		0.211451065
