12
-186.39349496
Al		-0.078285452		1.641134614		2.154908283
Al		2.525253035		2.607694104		1.766413678
Al		1.358960173		2.663668636		-0.646830297
F		1.000775027		3.093068466		2.83610447
F		-1.579243731		2.684219952		2.176039166
F		-0.492448162		-0.02630108		2.752522676
F		1.809174844		0.868875569		1.933576766
F		2.965627923		1.85669327		-0.072536857
F		1.087243684		3.034945261		-2.395069796
F		1.747849204		4.014655848		0.633202913
F		4.111831577		3.125056826		2.458571756
F		-0.010121999		1.801525661		0.211875785
