12
-186.39349496
Al		-0.082233842		1.644765034		2.151614913
Al		2.524182425		2.613264894		1.773334708
Al		1.365025063		2.655709156		-0.644756727
F		0.996271517		3.093887766		2.84186054
F		-1.588502211		2.679024252		2.173418966
F		-0.485815072		-0.02536922		2.750287136
F		1.806849754		0.874695329		1.929021776
F		2.971133703		1.85414744		-0.070201267
F		1.083662434		3.036288541		-2.390009636
F		1.748592304		4.010548458		0.634699373
F		4.121557667		3.120949316		2.447177516
F		-0.014308079		1.807088171		0.211238705
