12
-186.39349496
Al		-0.082497068		1.645007062		2.151395355
Al		2.524111051		2.61363628		1.77379611
Al		1.365429389		2.655178524		-0.644618489
F		0.995971283		3.093942386		2.842244278
F		-1.589119443		2.678677872		2.173244286
F		-0.485372866		-0.025307096		2.7501381
F		1.806694748		0.875083313		1.92871811
F		2.971500755		1.853977718		-0.070045561
F		1.083423684		3.036378093		-2.389672292
F		1.748641844		4.010274632		0.634799137
F		4.122206073		3.120675482		2.4464179
F		-0.014587151		1.807459005		0.211196233
