12
-186.39349496
Al		-0.078417065		1.641255628		2.154798504
Al		2.525217348		2.607879797		1.766644379
Al		1.359162336		2.66340332		-0.646761178
F		1.00062491		3.093095776		2.836296339
F		-1.579552347		2.684046762		2.175951826
F		-0.492227059		-0.026270018		2.752448158
F		1.809097341		0.869069561		1.933424933
F		2.965811449		1.856608409		-0.072459004
F		1.087124309		3.034990037		-2.394901124
F		1.747873974		4.014518935		0.633252795
F		4.11215578		3.124919909		2.458191948
F		-0.010261535		1.801711078		0.211854549
