12
-186.39349496
Al		-0.083155133		1.645612132		2.15084646
Al		2.523932616		2.614564745		1.774949615
Al		1.366440204		2.653851944		-0.644272894
F		0.995220698		3.094078936		2.843203623
F		-1.590662523		2.677811922		2.172807586
F		-0.484267351		-0.025151786		2.74976551
F		1.806307233		0.876053273		1.927958945
F		2.972418385		1.853553413		-0.069656296
F		1.082826809		3.036601973		-2.388828932
F		1.748765694		4.009590067		0.635048547
F		4.123827088		3.119990897		2.44451886
F		-0.015284831		1.80838609		0.211090053
