12
-186.39349496
Al		-0.083418359		1.64585416		2.150626902
Al		2.523861242		2.614936131		1.775411017
Al		1.36684453		2.653321312		-0.644134656
F		0.994920464		3.094133556		2.843587361
F		-1.591279755		2.677465542		2.172632906
F		-0.483825145		-0.025089662		2.749616474
F		1.806152227		0.876441257		1.927655279
F		2.972785437		1.853383691		-0.06950059
F		1.082588059		3.036691525		-2.388491588
F		1.748815234		4.009316241		0.635148311
F		4.124475494		3.119717063		2.443759244
F		-0.015563903		1.808756924		0.211047581
