12
-186.39349496
Al		-0.083549972		1.645975174		2.150517123
Al		2.523825555		2.615121824		1.775641718
Al		1.367046693		2.653055996		-0.644065537
F		0.994770347		3.094160866		2.84377923
F		-1.591588371		2.677292352		2.172545566
F		-0.483604042		-0.0250586		2.749541956
F		1.806074724		0.876635249		1.927503446
F		2.972968963		1.85329883		-0.069422737
F		1.082468684		3.036736301		-2.388322916
F		1.748840004		4.009179328		0.635198193
F		4.124799697		3.119580146		2.443379436
F		-0.015703439		1.808942341		0.211026345
