12
-186.39349496
Al		-0.083813198		1.646217202		2.150297565
Al		2.523754181		2.61549321		1.77610312
Al		1.367451019		2.652525364		-0.643927299
F		0.994470113		3.094215486		2.844162968
F		-1.592205603		2.676945972		2.172370886
F		-0.483161836		-0.024996476		2.74939292
F		1.805919718		0.877023233		1.92719978
F		2.973336015		1.853129108		-0.069267031
F		1.082229934		3.036825853		-2.387985572
F		1.748889544		4.008905502		0.635297957
F		4.125448103		3.119306312		2.44261982
F		-0.015982511		1.809313175		0.210983873
