12
-186.39349496
Al		-0.083944811		1.646338216		2.150187786
Al		2.523718494		2.615678903		1.776333821
Al		1.367653182		2.652260048		-0.64385818
F		0.994319996		3.094242796		2.844354837
F		-1.592514219		2.676772782		2.172283546
F		-0.482940733		-0.024965414		2.749318402
F		1.805842215		0.877217225		1.927047947
F		2.973519541		1.853044247		-0.069189178
F		1.082110559		3.036870629		-2.3878169
F		1.748914314		4.008768589		0.635347839
F		4.125772306		3.119169395		2.442240012
F		-0.016122047		1.809498592		0.210962637
