12
-186.39349496
Al		-0.084076424		1.64645923		2.150078007
Al		2.523682807		2.615864596		1.776564522
Al		1.367855345		2.651994732		-0.643789061
F		0.994169879		3.094270106		2.844546706
F		-1.592822835		2.676599592		2.172196206
F		-0.48271963		-0.024934352		2.749243884
F		1.805764712		0.877411217		1.926896114
F		2.973703067		1.852959386		-0.069111325
F		1.081991184		3.036915405		-2.387648228
F		1.748939084		4.008631676		0.635397721
F		4.126096509		3.119032478		2.441860204
F		-0.016261583		1.809684009		0.210941401
