12
-186.39349496
Al		-0.084471263		1.646822272		2.14974867
Al		2.523575746		2.616421675		1.777256625
Al		1.368461834		2.651198784		-0.643581704
F		0.993719528		3.094352036		2.845122313
F		-1.593748683		2.676080022		2.171934186
F		-0.482056321		-0.024841166		2.74902033
F		1.805532203		0.877993193		1.926440615
F		2.974253645		1.852704803		-0.068877766
F		1.081633059		3.037049733		-2.387142212
F		1.749013394		4.008220937		0.635547367
F		4.127069118		3.118621727		2.44072078
F		-0.016680191		1.81024026		0.210877693
