12
-186.39349496
Al		-0.084734489		1.6470643		2.149529112
Al		2.523504372		2.616793061		1.777718027
Al		1.36886616		2.650668152		-0.643443466
F		0.993419294		3.094406656		2.845506051
F		-1.594365915		2.675733642		2.171759506
F		-0.481614115		-0.024779042		2.748871294
F		1.805377197		0.878381177		1.926136949
F		2.974620697		1.852535081		-0.06872206
F		1.081394309		3.037139285		-2.386804868
F		1.749062934		4.007947111		0.635647131
F		4.127717524		3.118347893		2.439961164
F		-0.016959263		1.810611094		0.210835221
