12
-186.39349496
Al		-0.085260941		1.647548356		2.149089996
Al		2.523361624		2.617535833		1.778640831
Al		1.369674812		2.649606888		-0.64316699
F		0.992818826		3.094515896		2.846273527
F		-1.595600379		2.675040882		2.171410146
F		-0.480729703		-0.024654794		2.748573222
F		1.805067185		0.879157145		1.925529617
F		2.975354801		1.852195637		-0.068410648
F		1.080916809		3.037318389		-2.38613018
F		1.749162014		4.007399459		0.635846659
F		4.129014336		3.117800225		2.438441932
F		-0.017517407		1.811352762		0.210750277
