12
-186.39349496
Al		-0.085392554		1.64766937		2.148980217
Al		2.523325937		2.617721526		1.778871532
Al		1.369876975		2.649341572		-0.643097871
F		0.992668709		3.094543206		2.846465396
F		-1.595908995		2.674867692		2.171322806
F		-0.4805086		-0.024623732		2.748498704
F		1.804989682		0.879351137		1.925377784
F		2.975538327		1.852110776		-0.068332795
F		1.080797434		3.037363165		-2.385961508
F		1.749186784		4.007262546		0.635896541
F		4.129338539		3.117663308		2.438062124
F		-0.017656943		1.811538179		0.210729041
