12
-186.39349496
Al		-0.078680291		1.641497656		2.154578946
Al		2.525145974		2.608251183		1.767105781
Al		1.359566662		2.662872688		-0.64662294
F		1.000324676		3.093150396		2.836680077
F		-1.580169579		2.683700382		2.175777146
F		-0.491784853		-0.026207894		2.752299122
F		1.808942335		0.869457545		1.933121267
F		2.966178501		1.856438687		-0.072303298
F		1.086885559		3.035079589		-2.39456378
F		1.747923514		4.014245109		0.633352559
F		4.112804186		3.124646075		2.457432332
F		-0.010540607		1.802081912		0.211812077
