12
-186.39349496
Al		-0.086840297		1.649000524		2.147772648
Al		2.52293338		2.619764149		1.781409243
Al		1.372100768		2.646423096		-0.642337562
F		0.991017422		3.094843616		2.848575955
F		-1.599303771		2.672962602		2.170362066
F		-0.478076467		-0.02428205		2.747679006
F		1.804137149		0.881485049		1.923707621
F		2.977557113		1.851177305		-0.067476412
F		1.079484309		3.037855701		-2.384106116
F		1.749459254		4.005756503		0.636445243
F		4.132904772		3.116157221		2.433884236
F		-0.019191839		1.813577766		0.210495445
