12
-186.39349496
Al		-0.078811904		1.64161867		2.154469167
Al		2.525110287		2.608436876		1.767336482
Al		1.359768825		2.662607372		-0.646553821
F		1.000174559		3.093177706		2.836871946
F		-1.580478195		2.683527192		2.175689806
F		-0.49156375		-0.026176832		2.752224604
F		1.808864832		0.869651537		1.932969434
F		2.966362027		1.856353826		-0.072225445
F		1.086766184		3.035124365		-2.394395108
F		1.747948284		4.014108196		0.633402441
F		4.113128389		3.124509158		2.457052524
F		-0.010680143		1.802267329		0.211790841
