12
-186.39349496
Al		-0.087235136		1.649363566		2.147443311
Al		2.522826319		2.620321228		1.782101346
Al		1.372707257		2.645627148		-0.642130205
F		0.990567071		3.094925546		2.849151562
F		-1.600229619		2.672443032		2.170100046
F		-0.477413158		-0.024188864		2.747455452
F		1.80390464		0.882067025		1.923252122
F		2.978107691		1.850922722		-0.067242853
F		1.079126184		3.037990029		-2.3836001
F		1.749533564		4.005345764		0.636594889
F		4.133877381		3.11574647		2.432744812
F		-0.019610447		1.814134017		0.210431737
