12
-186.39349496
Al		-0.087498362		1.649605594		2.147223753
Al		2.522754945		2.620692614		1.782562748
Al		1.373111583		2.645096516		-0.641991967
F		0.990266837		3.094980166		2.8495353
F		-1.600846851		2.672096652		2.169925366
F		-0.476970952		-0.02412674		2.747306416
F		1.803749634		0.882455009		1.922948456
F		2.978474743		1.850753		-0.067087147
F		1.078887434		3.038079581		-2.383262756
F		1.749583104		4.005071938		0.636694653
F		4.134525787		3.115472636		2.431985196
F		-0.019889519		1.814504851		0.210389265
