12
-186.39349496
Al		-0.087761588		1.649847622		2.147004195
Al		2.522683571		2.621064		1.78302415
Al		1.373515909		2.644565884		-0.641853729
F		0.989966603		3.095034786		2.849919038
F		-1.601464083		2.671750272		2.169750686
F		-0.476528746		-0.024064616		2.74715738
F		1.803594628		0.882842993		1.92264479
F		2.978841795		1.850583278		-0.066931441
F		1.078648684		3.038169133		-2.382925412
F		1.749632644		4.004798112		0.636794417
F		4.135174193		3.115198802		2.43122558
F		-0.020168591		1.814875685		0.210346793
