12
-186.39349496
Al		-0.088024814		1.65008965		2.146784637
Al		2.522612197		2.621435386		1.783485552
Al		1.373920235		2.644035252		-0.641715491
F		0.989666369		3.095089406		2.850302776
F		-1.602081315		2.671403892		2.169576006
F		-0.47608654		-0.024002492		2.747008344
F		1.803439622		0.883230977		1.922341124
F		2.979208847		1.850413556		-0.066775735
F		1.078409934		3.038258685		-2.382588068
F		1.749682184		4.004524286		0.636894181
F		4.135822599		3.114924968		2.430465964
F		-0.020447663		1.815246519		0.210304321
