12
-186.39349496
Al		-0.088156427		1.650210664		2.146674858
Al		2.52257651		2.621621079		1.783716253
Al		1.374122398		2.643769936		-0.641646372
F		0.989516252		3.095116716		2.850494645
F		-1.602389931		2.671230702		2.169488666
F		-0.475865437		-0.02397143		2.746933826
F		1.803362119		0.883424969		1.922189291
F		2.979392373		1.850328695		-0.066697882
F		1.078290559		3.038303461		-2.382419396
F		1.749706954		4.004387373		0.636944063
F		4.136146802		3.114788051		2.430086156
F		-0.020587199		1.815431936		0.210283085
