12
-186.39349496
Al		-0.088419653		1.650452692		2.1464553
Al		2.522505136		2.621992465		1.784177655
Al		1.374526724		2.643239304		-0.641508134
F		0.989216018		3.095171336		2.850878383
F		-1.603007163		2.670884322		2.169313986
F		-0.475423231		-0.023909306		2.74678479
F		1.803207113		0.883812953		1.921885625
F		2.979759425		1.850158973		-0.066542176
F		1.078051809		3.038393013		-2.382082052
F		1.749756494		4.004113547		0.637043827
F		4.136795208		3.114514217		2.42932654
F		-0.020866271		1.81580277		0.210240613
