12
-186.39349496
Al		-0.089472557		1.651420804		2.145577068
Al		2.52221964		2.623478009		1.786023263
Al		1.376144028		2.641116776		-0.640955182
F		0.988015082		3.095389816		2.852413335
F		-1.605476091		2.669498802		2.168615266
F		-0.473654407		-0.02366081		2.746188646
F		1.802587089		0.885364889		1.920670961
F		2.981227633		1.849480085		-0.065919352
F		1.077096809		3.038751221		-2.380732676
F		1.749954654		4.003018243		0.637442883
F		4.139388832		3.113418881		2.426288076
F		-0.021982559		1.817286106		0.210070725
