12
-186.39349496
Al		-0.08960417		1.651541818		2.145467289
Al		2.522183953		2.623663702		1.786253964
Al		1.376346191		2.64085146		-0.640886063
F		0.987864965		3.095417126		2.852605204
F		-1.605784707		2.669325612		2.168527926
F		-0.473433304		-0.023629748		2.746114128
F		1.802509586		0.885558881		1.920519128
F		2.981411159		1.849395224		-0.065841499
F		1.076977434		3.038795997		-2.380564004
F		1.749979424		4.00288133		0.637492765
F		4.139713035		3.113281964		2.425908268
F		-0.022122095		1.817471523		0.210049489
