12
-186.39349496
Al		-0.089999009		1.65190486		2.145137952
Al		2.522076892		2.624220781		1.786946067
Al		1.37695268		2.640055512		-0.640678706
F		0.987414614		3.095499056		2.853180811
F		-1.606710555		2.668806042		2.168265906
F		-0.472769995		-0.023536562		2.745890574
F		1.802277077		0.886140857		1.920063629
F		2.981961737		1.849140641		-0.06560794
F		1.076619309		3.038930325		-2.380057988
F		1.750053734		4.002470591		0.637642411
F		4.140685644		3.112871213		2.424768844
F		-0.022540703		1.818027774		0.209985781
