12
-186.39349496
Al		-0.090525461		1.652388916		2.144698836
Al		2.521934144		2.624963553		1.787868871
Al		1.377761332		2.638994248		-0.64040223
F		0.986814146		3.095608296		2.853948287
F		-1.607945019		2.668113282		2.167916546
F		-0.471885583		-0.023412314		2.745592502
F		1.801967065		0.886916825		1.919456297
F		2.982695841		1.848801197		-0.065296528
F		1.076141809		3.039109429		-2.3793833
F		1.750152814		4.001922939		0.637841939
F		4.141982456		3.112323545		2.423249612
F		-0.023098847		1.818769442		0.209900837
