12
-186.39349496
Al		-0.0909203		1.652751958		2.144369499
Al		2.521827083		2.625520632		1.788560974
Al		1.378367821		2.6381983		-0.640194873
F		0.986363795		3.095690226		2.854523894
F		-1.608870867		2.667593712		2.167654526
F		-0.471222274		-0.023319128		2.745368948
F		1.801734556		0.887498801		1.919000798
F		2.983246419		1.848546614		-0.065062969
F		1.075783684		3.039243757		-2.378877284
F		1.750227124		4.0015122		0.637991585
F		4.142955065		3.111912794		2.422110188
F		-0.023517455		1.819325693		0.209837129
