12
Properties=species:S:1:pos:R:3:forces:R:3 energy=-185.77708798 pbc="F F F"
Al    -0.022939127999999975    -2.489992911    -1.791781661    -0.02391    -0.011316    0.049613
Al    1.7544782300000001    -0.6978610559999999    -0.812397524    0.014894    0.007684    -0.021376
Al    -0.614757106    0.15193300300000004    -1.808759383    0.010907    0.009222    -0.026806
F    3.395648388    -0.30998801600000003    -0.048202523    0.000182    0.000123    0.001548
F    -0.429304374    -4.171236293    -2.1732674359999997    0.000216    -0.003223    -0.003311
F    1.8515394379999999    -1.965251176    -2.2740313889999997    0.020826    0.004475    -0.006965
F    1.294836495    0.506506839    -2.28358792    -0.011565    -0.012714    0.015428
F    -1.7115351220000001    1.521860331    -2.195278611    -0.001195    0.000747    0.00116
F    -1.382989386    -1.390387052    -0.974826969    0.010624    -0.014595    -0.004282
F    -0.365834074    -1.169922109    -3.206222181    -0.004251    0.014706    -0.015981
F    0.2776811960000001    0.286041798    -0.052192701999999994    -0.005913    0.011014    0.025778
F    0.8343841340000001    -2.18571621    -0.042636073    -0.010814    -0.006122    -0.014806
