12
Properties=species:S:1:pos:R:3:forces:R:3 energy=-186.08802835 pbc="F F F"
Al    -0.08359815699999999    1.763281596    1.9579710209999999    0.504065    -0.525895    0.13422
Al    2.785491596    2.3325715249999996    1.669059075    -0.644868    -0.772359    -1.701273
Al    1.001747158    2.832999581    -0.480355153    -0.119661    0.683786    -0.209444
F    1.128638852    3.040761519    2.482596332    0.102736    0.111854    0.001887
F    -1.5560239470000001    2.871024543    2.178842095    -0.042952    0.430887    0.058361
F    -0.20899495999999995    0.062643782    2.81235326    -0.199926    -0.005694    0.042409
F    2.014947869    0.684976585    1.942644734    0.055392    -0.088837    0.178676
F    2.615928342    1.798564372    -0.178927954    -0.032683    0.08932    0.50927
F    1.440879214    2.985323952    -2.334088804    0.10851    -0.066454    -0.173245
F    1.6816038679999998    4.048200087    0.7446572650000001    0.000278    -0.017959    0.066116
F    3.885773466    3.355031111    2.858768168    0.360141    0.499605    0.890492
F    -0.2401754    1.586724868    0.17975350499999998    -0.091031    -0.338255    0.20253
