      12
SCF Done            -167.81348595
Al           -0.030127613         1.518858772         2.138665020
Al            2.543444696         2.565234225         1.749297775
Al            1.285471684         2.847284584        -0.614123454
F             1.043528378         2.947367736         2.910555863
F            -1.551299283         2.560928922         2.297632586
F            -0.412395871        -0.184660466         2.610938630
F             1.852714153         0.809492393         1.795712465
F             2.932521345         1.982951453        -0.163733416
F             0.966796009         3.332455933        -2.328171212
F             1.708960894         4.065412587         0.762626867
F             4.140962168         3.052490177         2.440068980
F            -0.032604791         1.863805010         0.209435693
