12
Properties=species:S:1:pos:R:3:forces:R:3 energy=-182.31766851 pbc="F F F"
Al    0.369205693    -0.793537658    1.545565239    1.439707    -9.227427    -9.069108
Al    2.819802865    -1.925812872    -0.6835654969999999    3.545593    -1.768693    -1.93889
Al    -0.640590981    -1.7738497579999999    -0.877956143    -2.799526    -1.850175    -2.863255
F    3.195955207    -0.859120293    -0.96497868    -1.608021    -1.913303    0.881201
F    -1.994054354    -0.303408388    -2.036531597    1.337416    -1.875474    1.310296
F    2.662492395    -3.098592694    -0.512759643    -0.641218    3.339864    -0.040583
F    -1.2560635660000001    -3.904989702    -1.0555752200000001    0.54195    3.355051    0.131783
F    1.743679497    -1.329867393    1.354138902    -5.370205    2.525461    3.033074
F    0.618405164    -1.5040578820000001    -1.5365956649999999    0.078182    0.264626    -0.559998
F    0.086042752    -1.222005063    3.6144687889999996    -0.775786    -0.835504    5.39887
F    0.413030071    1.305226299    1.1529451359999998    0.035343    5.336992    -0.713081
F    -0.918011868    -1.4045948830000001    0.874359814    4.216566    2.648581    4.42969
