      12
SCF Done            -182.31766851
Al            0.380270693        -0.793395658         1.547177239
Al            2.447318865        -1.832394872        -0.582967497
Al           -0.966429981        -1.876236758        -1.080288143
F             3.430544207        -0.544925293        -1.088534680
F            -1.796634354        -0.612056388        -1.850039597
F             2.715641395        -3.475945694        -0.490993643
F            -1.208420566        -3.526341702        -1.062658220
F             1.787579497        -1.349575393         1.314524902
F             0.834035164        -1.501288882        -1.505182665
F             0.084638752        -1.222023063         3.614263789
F             0.410799071         1.305197299         1.152620136
F            -0.887745868        -1.383933883         0.924778814
