12
Properties=species:S:1:pos:R:3:forces:R:3 energy=-185.76022093 pbc="F F F"
Al    -0.109086657    1.6519109959999998    2.176229921    -0.436446    0.247621    0.184075
Al    2.767146896    2.099420025    2.051693975    0.081382    -3.811305    1.321932
Al    1.450891258    2.434087981    -0.694474453    1.73623    -1.875166    -0.300218
F    0.9373323520000001    3.158098319    2.870885632    -0.213334    0.337313    0.127188
F    -1.507588347    2.639173943    2.174811895    0.763023    -0.509227    -0.030842
F    -0.5070382600000001    -0.029383218    2.75356246    -0.020358    0.066539    -0.040132
F    2.104414569    1.526048585    1.884668034    1.111862    3.050161    -0.264624
F    2.809256542    1.9461164720000002    -0.147561054    -1.446511    0.858666    -0.602398
F    1.071922514    3.068503952    -2.454714804    -0.142168    0.242881    -0.431777
F    1.7336818680000001    4.226136987    0.697111265    -0.189242    1.640841    0.292782
F    3.6413379660000005    2.954464011    2.262583768    -0.889565    -0.201619    -0.399632
F    -0.0037237999999999993    1.829996168    0.184357105    -0.354871    -0.046706    0.143645
