12
Properties=species:S:1:pos:R:3:forces:R:3 energy=-186.90915714 pbc="F F F"
Al    0.418775593    -0.608971158    1.7569633390000001    0.616657    0.042627    -0.077847
Al    2.459945965    -1.661651472    -0.47103669700000006    -0.907612    -0.288538    -0.853168
Al    -0.779192981    -1.871770158    -1.049793943    -0.471946    0.377343    1.001946
F    3.6323693070000003    -0.451413193    -1.36772318    0.374056    0.363722    0.374953
F    -1.957319654    -0.5796932880000001    -1.803255197    0.095748    0.185765    -0.569225
F    2.613813395    -3.548243094    -0.488254443    0.293247    -0.254594    0.335137
F    -1.396972566    -3.669456602    -1.0343757199999999    0.267032    -0.366764    -0.286181
F    1.933681797    -1.7324977929999998    1.409242202    0.018654    0.25196    -0.121159
F    0.939182964    -1.500083482    -1.511549065    0.006282    -0.033317    -0.018297
F    0.065197952    -1.1276599630000002    3.4652276889999998    -0.260537    -0.059271    0.070934
F    0.15292597100000005    1.134647299    1.248836536    0.052891    0.032819    -0.011635
F    -0.896491068    -1.265047183    0.670920014    -0.084472    -0.251751    0.154542
