      12
SCF Done            -187.32009491
Al            1.330095680        -0.006412283         2.418745673
Al            1.276784000         1.189243000        -0.083083000
Al           -0.366562362         0.891143050        -2.297158373
F            -1.885926572        -0.118714453        -2.104892806
F             2.279346253        -0.245887153         0.788929852
F             0.216342139         1.626170090        -3.885900533
F            -0.251518610         2.130467353        -0.859951049
F             2.587876557         2.420946512        -0.320355443
F             1.098553239        -0.090673795        -1.504139454
F             0.281866717         1.367048029         1.550281839
F             2.377153169         0.789824676         3.712509437
F             0.235927075        -1.451833352         2.699459271
