      12
SCF Done            -167.11486026
Al            1.330096862        -0.006411884         2.418745837
Al            1.276784000         1.189243000        -0.083083000
Al           -0.366561985         0.891144164        -2.297158673
F            -1.885927004        -0.118714144        -2.104893677
F             2.279346192        -0.245887154         0.788929913
F             0.216342984         1.626171654        -3.885900394
F            -0.251518626         2.130467281        -0.859951095
F             2.587876553         2.420946509        -0.320355444
F             1.098553423        -0.090673672        -1.504139577
F             0.281866871         1.367048223         1.550281902
F             2.377153930         0.789825419         3.712509009
F             0.235928359        -1.451832859         2.699460786
