12
Properties=species:S:1:pos:R:3:forces:R:3 energy=-187.24475565 pbc="F F F"
Al    0.5907951929999999    -0.783017158    1.6172047390000002    0.0    -0.0    -0.0
Al    2.591671365    -1.972445872    -0.642662497    -0.0    1e-06    0.0
Al    -0.6517169810000001    -2.014099758    -1.115165143    0.0    1e-06    0.0
F    3.678542707    -0.650489793    -1.2161741799999999    0.0    -0.0    0.0
F    -1.632260854    -0.7186948879999999    -1.989861597    -0.0    -0.0    0.0
F    2.9392213949999997    -3.716500694    -0.595259643    -0.0    1e-06    0.0
F    -1.0239235660000001    -3.767398202    -1.1726177199999999    -0.0    1e-06    0.0
F    2.099103997    -1.569138393    1.1074264020000002    -0.0    -0.0    -0.0
F    1.034194164    -1.662651882    -1.592668665    0.0    0.0    -0.0
F    0.31129575200000004    -1.3265205629999999    3.3398732890000002    -0.0    1e-06    0.0
F    0.6086695710000001    0.980997299    1.095196136    0.0    -0.0    -0.0
F    -0.758703868    -1.6058403829999999    0.691095814    0.0    -0.0    -0.0
