      12
SCF Done            -187.24475565
Al            0.349627195        -0.599315078         1.740413717
Al            2.350503363        -1.788743854        -0.519453490
Al           -0.892884982        -1.830397740        -0.991956136
F             3.476158711        -0.496330793        -1.112779203
F            -1.834644851        -0.564535889        -1.886466621
F             2.736837387        -3.562341677        -0.491864592
F            -1.226307573        -3.613239185        -1.069222669
F             1.896719996        -1.414979332         1.210821400
F             0.831810164        -1.508492882        -1.489273665
F             0.108911751        -1.172361441         3.443268281
F             0.406285579         1.135156366         1.198591072
F            -0.961087869        -1.451681321         0.794490812
