12
Properties=species:S:1:pos:R:3:forces:R:3 energy=-186.48727493 pbc="F F F"
Al    1.1873360800000001    0.12417931699999998    2.5130274729999997    1.187475    -1.134445    -1.142764
Al    1.333953    1.1195566    -0.11380019999999999    -1.074803    0.692611    0.475569
Al    -0.42897876199999996    0.9181822500000001    -2.2964633730000004    1.515446    -1.295566    -0.166805
F    -1.712233972    -0.566180853    -2.246368006    -1.033852    0.06766    0.300819
F    2.059736853    -0.318137353    0.835640652    0.063543    0.008408    -0.443724
F    0.171331539    1.81992589    -3.922039533    -0.301854    0.922855    -0.334667
F    -0.35961821    2.021173153    -0.7094012489999999    -0.204356    0.057811    -0.268289
F    2.626626357    2.457947512    -0.32726884300000003    0.489887    0.034138    -0.158999
F    1.2163498389999998    0.096168405    -1.6739352539999999    0.313349    -0.114309    0.299583
F    0.414735317    1.640774829    1.594769639    -9e-05    -0.042531    0.339513
F    2.714744369    0.5704876759999999    3.646101237    0.045047    0.752451    0.697562
F    -0.015679725    -1.399607752    2.8018676709999997    -0.999793    0.050917    0.402202
