      12
SCF Done            -186.48727493
Al            1.434905080        -0.128648683         2.363342473
Al            1.151591000         1.335253600        -0.016904200
Al           -0.166824762         0.658192250        -2.402742373
F            -1.762972972        -0.262113853        -2.169889006
F             2.075312853        -0.325964353         0.595489652
F            -0.037178461         1.921848890        -3.751886533
F            -0.415560210         1.894253153        -0.916389249
F             2.631813357         2.369703512        -0.343580843
F             1.369642839         0.020690405        -1.504288254
F             0.479546317         1.454535829         1.747080639
F             2.457153369         0.696522676         3.670220237
F            -0.071860725        -1.092864752         2.862160671
