12
Properties=species:S:1:pos:R:3:forces:R:3 energy=-185.72609890 pbc="F F F"
Al    -1.618107261    2.37453302    -1.2696176909999999    -2.939039    -2.100394    3.740673
Al    -0.606214955    -0.325453394    -2.304638174    -0.418013    -1.005862    0.388825
Al    -2.238553776    -0.264698318    -0.47022483699999995    -0.267426    1.018847    0.2258
F    -0.49245774100000006    3.978807236    0.06356974299999998    0.174468    0.15279    -0.061179
F    -3.333637447    3.359385793    -2.642862392    0.025095    0.096696    -0.213639
F    -1.3070772800000001    -1.483611027    -1.760893561    0.210173    0.064053    -0.20462
F    -2.628041762    1.041801683    0.22547056199999999    1.38712    1.756116    -2.212103
F    -3.196673163    -1.238093632    0.549977653    0.001414    -0.069477    0.007128
F    0.581967198    -0.5006631410000001    -3.598754704    0.003156    0.171368    0.01002
F    -0.238614725    2.070624514    -2.416887831    1.251908    -0.101514    -1.023402
F    -2.4454703569999996    0.47358495100000003    -2.304767228    0.253562    -0.01124    -0.338605
F    -0.301136168    0.16421743900000002    -0.41378300799999995    0.317577    0.028616    -0.3189
