      12
SCF Done            -167.29379148
Al           -1.801028189         2.538936085        -1.120060606
Al           -0.537681970        -0.028364396        -2.340334156
Al           -2.212466786        -0.313972312        -0.502892849
F            -0.753684680         3.686485311        -0.165913173
F            -3.013505370         3.177044866        -2.319697319
F            -1.370258288        -1.673570037        -1.728383554
F            -2.485085680         1.491293710        -0.010061415
F            -3.247053330        -1.307333546         0.602083564
F             0.620854090        -0.511754060        -3.642071800
F            -0.270421693         1.875278522        -2.403363722
F            -2.445014357         0.476381951        -2.315024228
F            -0.291749163         0.161014380        -0.413250988
