      12
SCF Done            -182.50476386
Al           -0.358235238         1.036274360        -1.728735736
Al           -0.284338114         1.105212653         1.048520236
Al           -3.083580919         0.444481489        -1.875291942
F            -3.558233661         0.307672408        -3.669888508
F            -1.208571357        -0.405369301        -1.833875245
F            -1.726999887         1.993446003        -1.879626583
F            -1.980345925         0.728156939         0.497030024
F             0.329908327         1.213984643        -0.208736511
F            -0.322868175         2.626750997         1.957374347
F             0.301513115        -0.262321658         2.012474245
F            -4.335552292         0.199841470        -0.515500565
F             0.618510027         1.220881937        -3.117394429
