12
Properties=species:S:1:pos:R:3:forces:R:3 energy=-186.04340159 pbc="F F F"
Al    0.37278559299999997    -0.762561158    1.595838939    -0.214597    1.380856    1.35131
Al    2.1186633649999997    -1.716839272    -0.47774749699999997    1.840221    -0.575506    -0.541681
Al    -0.6844603810000001    -1.752838558    -0.886111343    -1.59416    -0.619604    -1.042009
F    3.455995907    -0.629024593    -1.07226698    0.890988    1.395858    -0.541703
F    -1.823546654    -0.696828888    -1.841400397    -0.734246    1.374981    -0.778468
F    2.7646767949999997    -3.413688694    -0.5108392429999999    0.132656    -1.652819    0.103245
F    -1.251306566    -3.465265402    -1.09589512    -0.114988    -1.656002    0.067168
F    1.8306263969999998    -1.365528393    1.074508802    0.751488    -0.370159    0.965686
F    0.8059061639999999    -1.6133096820000001    -1.3022148649999998    0.167737    0.57923    -1.202462
F    0.11747195199999999    -1.0760107630000002    3.3760186890000004    -0.213597    -0.75764    1.532981
F    0.395286571    1.0273570989999998    1.283592936    0.074676    1.293283    -0.626609
F    -0.8601216679999999    -1.400085383    0.682514214    -0.986179    -0.392475    0.71254
