12
Properties=species:S:1:pos:R:3:forces:R:3 energy=-186.35036723 pbc="F F F"
Al    -1.701833661    2.88323982    -1.1821704910000002    0.018028    0.006574    -0.005015
Al    -0.501401355    0.32202660600000005    -2.2613971740000003    0.063233    0.009102    0.033116
Al    -2.244811776    -0.015071717999999956    -0.496043237    -0.087648    -0.013433    -0.012072
F    -0.788979141    3.9507464359999998    -0.087379857    0.006124    0.006863    0.007344
F    -2.979782647    3.456464393    -2.317161192    -0.01699    0.006255    -0.012565
F    -1.37986768    -1.4032752270000002    -1.680811961    -0.000255    -0.008917    -0.002047
F    -2.574018762    1.7215442829999998    0.063406562    -0.005855    -0.004802    0.012959
F    -3.325002763    -1.029614832    0.581507853    0.002345    -0.002295    0.009261
F    0.687071598    -0.24756774100000006    -3.533774304    0.009286    -0.004115    -0.021195
F    -0.302177125    2.164379314    -2.266876631    0.002307    -0.001104    -0.003976
F    -2.429190757    0.752153751    -2.294246828    -0.035803    -0.001943    0.013858
F    -0.341082368    0.42254323899999996    -0.321140008    0.045227    0.007815    -0.019667
