      12
SCF Done            -167.70901951
Al           -1.697066589         2.560056285        -1.233704406
Al           -0.496459970        -0.001428796        -2.312125956
Al           -2.239894986        -0.338067112        -0.546709049
F            -0.785054280         3.679855511        -0.130894573
F            -2.975789770         3.184915266        -2.360591719
F            -1.375652088        -1.674593437        -1.722973154
F            -2.569990080         1.450622510         0.020425785
F            -3.320852330        -1.300431546         0.539213964
F             0.691269890        -0.519279060        -3.576190600
F            -0.298121493         1.892950922        -2.309926522
F            -2.425067357         0.480634751        -2.336977628
F            -0.336982163         0.151613180        -0.363746788
