12
Properties=species:S:1:pos:R:3:forces:R:3 energy=-187.36899706 pbc="F F F"
Al    1.29733568    0.226865117    2.488667273    0.587179    0.452052    0.108506
Al    1.1841591999999999    1.2894358    -0.0732432    -0.026784    0.037333    -0.087421
Al    -0.237598362    0.55453325    -2.375037173    -0.47932    -0.532047    0.241683
F    -1.302272372    -0.945011453    -2.338465606    0.282406    0.268827    -0.050434
F    2.148285453    -0.15046155300000003    0.807413852    -0.014667    -0.05587    0.040789
F    -0.05740546099999999    1.68659929    -3.817021133    0.080182    0.195406    -0.272789
F    -0.57307821    1.663797153    -0.7866162489999999    0.043302    0.047599    0.037956
F    2.310507957    2.719618312    -0.290534043    0.027024    0.021303    0.003038
F    1.4786024389999999    0.146228805    -1.645947454    0.06534    0.01735    0.020395
F    0.295810717    1.5665478290000001    1.6087034390000001    -0.03472    -0.027057    0.03636
F    2.4732903690000003    0.919173676    3.668913637    -0.219642    -0.113772    -0.169462
F    0.161615075    -1.1754023519999999    2.8672502709999996    -0.310299    -0.311125    0.09138
