      12
SCF Done            -187.36899679
Al            1.382105680         0.132180117         2.445107273
Al            1.262583200         1.198197800        -0.115068200
Al           -0.403002362         0.742734250        -2.288453173
F            -1.714935372        -0.471236453        -2.121315606
F             2.105127453        -0.308929553         0.744131852
F            -0.082621461         1.713279290        -3.804382133
F            -0.405124210         1.892006153        -0.765854249
F             2.545532957         2.447647312        -0.415727043
F             1.227840439         0.010331805        -1.623853454
F             0.472160717         1.572742829         1.602131439
F             2.651356369         0.718330676         3.575220637
F             0.138653075        -1.145795352         2.881917271
