12
-185.77729729
Al		0.278530472		-2.316478111		-1.824410361
Al		2.02391013		-0.543396256		-0.812713624
Al		-0.327391706		0.299996403		-1.799511583
F		3.612628288		-0.182856616		-0.037685523
F		-0.163358474		-4.018775393		-2.226408636
F		2.019789638		-1.665531776		-2.404119089
F		1.520320995		0.491257339		-2.38359442
F		-1.474221422		1.641754031		-2.172541411
F		-1.016179486		-1.247173852		-0.838463769
F		0.081585026		-0.970314009		-3.217547681
F		0.422556496		0.214397998		-0.004511002
F		0.922025134		-1.94239161		-0.025035173
