12
-185.77729729
Al		0.276129272		-2.325728111		-1.826594761
Al		2.03254293		-0.541437056		-0.808502424
Al		-0.333623306		0.307287203		-1.801538383
F		3.622619488		-0.180589416		-0.032811523
F		-0.166137274		-4.029480593		-2.228936636
F		2.084778438		-1.782540976		-2.311169889
F		1.527652595		0.623222939		-2.28827602
F		-1.481433422		1.650192031		-2.174887411
F		-1.117310686		-1.269396252		-0.964292569
F		-0.077167774		-1.007068809		-3.218498481
F		0.487509696		0.360895598		-0.034070202
F		1.044635534		-2.04486841		-0.056963973
