12
-185.77729729
Al		0.271927172		-2.341915611		-1.830417461
Al		2.04765033		-0.538008456		-0.801132824
Al		-0.344528606		0.320046103		-1.805085283
F		3.640104088		-0.176621816		-0.024282023
F		-0.171000174		-4.048214693		-2.233360636
F		2.198508838		-1.987307076		-2.148508789
F		1.540482895		0.854162739		-2.12146882
F		-1.494054422		1.664958531		-2.178992911
F		-1.294290286		-1.308285452		-1.184492969
F		-0.354985174		-1.071389709		-3.220162381
F		0.601177796		0.617266398		-0.085798802
F		1.259203734		-2.22420281		-0.112839373
