12
-185.77729729
Al		0.273127772		-2.337290611		-1.829325261
Al		2.04333393		-0.538988056		-0.803238424
Al		-0.341412806		0.316400703		-1.804071883
F		3.635108488		-0.177755416		-0.026719023
F		-0.169610774		-4.042862093		-2.232096636
F		2.166014438		-1.928802476		-2.194983389
F		1.536817095		0.788179939		-2.16912802
F		-1.490448422		1.660739531		-2.177819911
F		-1.243724686		-1.297174252		-1.121578569
F		-0.275608774		-1.053012309		-3.219686981
F		0.568701196		0.544017598		-0.071019202
F		1.197898534		-2.17296441		-0.096874973
