12
-185.77729729
Al		0.281531972		-2.304915611		-1.821679861
Al		2.01311913		-0.545845256		-0.817977624
Al		-0.319602206		0.290882903		-1.796978083
F		3.600139288		-0.185690616		-0.043778023
F		-0.159884974		-4.005393893		-2.223248636
F		1.938553638		-1.519270276		-2.520305589
F		1.511156495		0.326300339		-2.50274242
F		-1.465206422		1.631206531		-2.169608911
F		-0.889765486		-1.219395852		-0.681177769
F		0.280026026		-0.924370509		-3.216359181
F		0.341364996		0.031275998		0.032437998
F		0.768762134		-1.81429561		0.014875827
12
-185.77729729
Al		0.280931672		-2.307228111		-1.822225961
Al		2.01527733		-0.545355456		-0.816924824
Al		-0.321160106		0.292705603		-1.797484783
F		3.602637088		-0.185123816		-0.042559523
F		-0.160579674		-4.008070193		-2.223880636
F		1.954800838		-1.548522576		-2.497068289
F		1.512989395		0.359291739		-2.47891282
F		-1.467009422		1.633316031		-2.170195411
F		-0.915048286		-1.224951452		-0.712634969
F		0.240337826		-0.933559209		-3.216596881
F		0.357603296		0.067900398		0.025048198
F		0.799414734		-1.83991481		0.006893627
12
-185.77729729
Al		0.280331372		-2.309540611		-1.822772061
Al		2.01743553		-0.544865656		-0.815872024
Al		-0.322718006		0.294528303		-1.797991483
F		3.605134888		-0.184557016		-0.041341023
F		-0.161274374		-4.010746493		-2.224512636
F		1.971048038		-1.577774876		-2.473830989
F		1.514822295		0.392283139		-2.45508322
F		-1.468812422		1.635425531		-2.170781911
F		-0.940331086		-1.230507052		-0.744092169
F		0.200649626		-0.942747909		-3.216834581
F		0.373841596		0.104524798		0.017658398
F		0.830067334		-1.86553401		-0.001088573
12
-185.77729729
Al		0.279731072		-2.311853111		-1.823318161
Al		2.01959373		-0.544375856		-0.814819224
Al		-0.324275906		0.296351003		-1.798498183
F		3.607632688		-0.183990216		-0.040122523
F		-0.161969074		-4.013422793		-2.225144636
F		1.987295238		-1.607027176		-2.450593689
F		1.516655195		0.425274539		-2.43125362
F		-1.470615422		1.637535031		-2.171368411
F		-0.965613886		-1.236062652		-0.775549369
F		0.160961426		-0.951936609		-3.217072281
F		0.390079896		0.141149198		0.010268598
F		0.860719934		-1.89115321		-0.009070773
12
-185.77729729
Al		0.279130772		-2.314165611		-1.823864261
Al		2.02175193		-0.543886056		-0.813766424
Al		-0.325833806		0.298173703		-1.799004883
F		3.610130488		-0.183423416		-0.038904023
F		-0.162663774		-4.016099093		-2.225776636
F		2.003542438		-1.636279476		-2.427356389
F		1.518488095		0.458265939		-2.40742402
F		-1.472418422		1.639644531		-2.171954911
F		-0.990896686		-1.241618252		-0.807006569
F		0.121273226		-0.961125309		-3.217309981
F		0.406318196		0.177773598		0.002878798
F		0.891372534		-1.91677241		-0.017052973
12
-185.77729729
Al		0.278530472		-2.316478111		-1.824410361
Al		2.02391013		-0.543396256		-0.812713624
Al		-0.327391706		0.299996403		-1.799511583
F		3.612628288		-0.182856616		-0.037685523
F		-0.163358474		-4.018775393		-2.226408636
F		2.019789638		-1.665531776		-2.404119089
F		1.520320995		0.491257339		-2.38359442
F		-1.474221422		1.641754031		-2.172541411
F		-1.016179486		-1.247173852		-0.838463769
F		0.081585026		-0.970314009		-3.217547681
F		0.422556496		0.214397998		-0.004511002
F		0.922025134		-1.94239161		-0.025035173
12
-185.77729729
Al		0.277930172		-2.318790611		-1.824956461
Al		2.02606833		-0.542906456		-0.811660824
Al		-0.328949606		0.301819103		-1.800018283
F		3.615126088		-0.182289816		-0.036467023
F		-0.164053174		-4.021451693		-2.227040636
F		2.036036838		-1.694784076		-2.380881789
F		1.522153895		0.524248739		-2.35976482
F		-1.476024422		1.643863531		-2.173127911
F		-1.041462286		-1.252729452		-0.869920969
F		0.041896826		-0.979502709		-3.217785381
F		0.438794796		0.251022398		-0.011900802
F		0.952677734		-1.96801081		-0.033017373
12
-185.77729729
Al		0.277329872		-2.321103111		-1.825502561
Al		2.02822653		-0.542416656		-0.810608024
Al		-0.330507506		0.303641803		-1.800524983
F		3.617623888		-0.181723016		-0.035248523
F		-0.164747874		-4.024127993		-2.227672636
F		2.052284038		-1.724036376		-2.357644489
F		1.523986795		0.557240139		-2.33593522
F		-1.477827422		1.645973031		-2.173714411
F		-1.066745086		-1.258285052		-0.901378169
F		0.002208626		-0.988691409		-3.218023081
F		0.455033096		0.287646798		-0.019290602
F		0.983330334		-1.99363001		-0.040999573
12
-185.77729729
Al		0.276729572		-2.323415611		-1.826048661
Al		2.03038473		-0.541926856		-0.809555224
Al		-0.332065406		0.305464503		-1.801031683
F		3.620121688		-0.181156216		-0.034030023
F		-0.165442574		-4.026804293		-2.228304636
F		2.068531238		-1.753288676		-2.334407189
F		1.525819695		0.590231539		-2.31210562
F		-1.479630422		1.648082531		-2.174300911
F		-1.092027886		-1.263840652		-0.932835369
F		-0.037479574		-0.997880109		-3.218260781
F		0.471271396		0.324271198		-0.026680402
F		1.013982934		-2.01924921		-0.048981773
12
-185.77729729
Al		0.276129272		-2.325728111		-1.826594761
Al		2.03254293		-0.541437056		-0.808502424
Al		-0.333623306		0.307287203		-1.801538383
F		3.622619488		-0.180589416		-0.032811523
F		-0.166137274		-4.029480593		-2.228936636
F		2.084778438		-1.782540976		-2.311169889
F		1.527652595		0.623222939		-2.28827602
F		-1.481433422		1.650192031		-2.174887411
F		-1.117310686		-1.269396252		-0.964292569
F		-0.077167774		-1.007068809		-3.218498481
F		0.487509696		0.360895598		-0.034070202
F		1.044635534		-2.04486841		-0.056963973
12
-185.77729729
Al		0.275528972		-2.328040611		-1.827140861
Al		2.03470113		-0.540947256		-0.807449624
Al		-0.335181206		0.309109903		-1.802045083
F		3.625117288		-0.180022616		-0.031593023
F		-0.166831974		-4.032156893		-2.229568636
F		2.101025638		-1.811793276		-2.287932589
F		1.529485495		0.656214339		-2.26444642
F		-1.483236422		1.652301531		-2.175473911
F		-1.142593486		-1.274951852		-0.995749769
F		-0.116855974		-1.016257509		-3.218736181
F		0.503747996		0.397519998		-0.041460002
F		1.075288134		-2.07048761		-0.064946173
12
-185.77729729
Al		0.274928672		-2.330353111		-1.827686961
Al		2.03685933		-0.540457456		-0.806396824
Al		-0.336739106		0.310932603		-1.802551783
F		3.627615088		-0.179455816		-0.030374523
F		-0.167526674		-4.034833193		-2.230200636
F		2.117272838		-1.841045576		-2.264695289
F		1.531318395		0.689205739		-2.24061682
F		-1.485039422		1.654411031		-2.176060411
F		-1.167876286		-1.280507452		-1.027206969
F		-0.156544174		-1.025446209		-3.218973881
F		0.519986296		0.434144398		-0.048849802
F		1.105940734		-2.09610681		-0.072928373
12
-185.77729729
Al		0.274328372		-2.332665611		-1.828233061
Al		2.03901753		-0.539967656		-0.805344024
Al		-0.338297006		0.312755303		-1.803058483
F		3.630112888		-0.178889016		-0.029156023
F		-0.168221374		-4.037509493		-2.230832636
F		2.133520038		-1.870297876		-2.241457989
F		1.533151295		0.722197139		-2.21678722
F		-1.486842422		1.656520531		-2.176646911
F		-1.193159086		-1.286063052		-1.058664169
F		-0.196232374		-1.034634909		-3.219211581
F		0.536224596		0.470768798		-0.056239602
F		1.136593334		-2.12172601		-0.080910573
12
-185.77729729
Al		0.273728072		-2.334978111		-1.828779161
Al		2.04117573		-0.539477856		-0.804291224
Al		-0.339854906		0.314578003		-1.803565183
F		3.632610688		-0.178322216		-0.027937523
F		-0.168916074		-4.040185793		-2.231464636
F		2.149767238		-1.899550176		-2.218220689
F		1.534984195		0.755188539		-2.19295762
F		-1.488645422		1.658630031		-2.177233411
F		-1.218441886		-1.291618652		-1.090121369
F		-0.235920574		-1.043823609		-3.219449281
F		0.552462896		0.507393198		-0.063629402
F		1.167245934		-2.14734521		-0.088892773
12
-185.77729729
Al		0.273127772		-2.337290611		-1.829325261
Al		2.04333393		-0.538988056		-0.803238424
Al		-0.341412806		0.316400703		-1.804071883
F		3.635108488		-0.177755416		-0.026719023
F		-0.169610774		-4.042862093		-2.232096636
F		2.166014438		-1.928802476		-2.194983389
F		1.536817095		0.788179939		-2.16912802
F		-1.490448422		1.660739531		-2.177819911
F		-1.243724686		-1.297174252		-1.121578569
F		-0.275608774		-1.053012309		-3.219686981
F		0.568701196		0.544017598		-0.071019202
F		1.197898534		-2.17296441		-0.096874973
12
-185.77729729
Al		0.272527472		-2.339603111		-1.829871361
Al		2.04549213		-0.538498256		-0.802185624
Al		-0.342970706		0.318223403		-1.804578583
F		3.637606288		-0.177188616		-0.025500523
F		-0.170305474		-4.045538393		-2.232728636
F		2.182261638		-1.958054776		-2.171746089
F		1.538649995		0.821171339		-2.14529842
F		-1.492251422		1.662849031		-2.178406411
F		-1.269007486		-1.302729852		-1.153035769
F		-0.315296974		-1.062201009		-3.219924681
F		0.584939496		0.580641998		-0.078409002
F		1.228551134		-2.19858361		-0.104857173
12
-185.77729729
Al		0.271927172		-2.341915611		-1.830417461
Al		2.04765033		-0.538008456		-0.801132824
Al		-0.344528606		0.320046103		-1.805085283
F		3.640104088		-0.176621816		-0.024282023
F		-0.171000174		-4.048214693		-2.233360636
F		2.198508838		-1.987307076		-2.148508789
F		1.540482895		0.854162739		-2.12146882
F		-1.494054422		1.664958531		-2.178992911
F		-1.294290286		-1.308285452		-1.184492969
F		-0.354985174		-1.071389709		-3.220162381
F		0.601177796		0.617266398		-0.085798802
F		1.259203734		-2.22420281		-0.112839373
12
-185.77729729
Al		0.271326872		-2.344228111		-1.830963561
Al		2.04980853		-0.537518656		-0.800080024
Al		-0.346086506		0.321868803		-1.805591983
F		3.642601888		-0.176055016		-0.023063523
F		-0.171694874		-4.050890993		-2.233992636
F		2.214756038		-2.016559376		-2.125271489
F		1.542315795		0.887154139		-2.09763922
F		-1.495857422		1.667068031		-2.179579411
F		-1.319573086		-1.313841052		-1.215950169
F		-0.394673374		-1.080578409		-3.220400081
F		0.617416096		0.653890798		-0.093188602
F		1.289856334		-2.24982201		-0.120821573
12
-185.77729729
Al		0.270726572		-2.346540611		-1.831509661
Al		2.05196673		-0.537028856		-0.799027224
Al		-0.347644406		0.323691503		-1.806098683
F		3.645099688		-0.175488216		-0.021845023
F		-0.172389574		-4.053567293		-2.234624636
F		2.231003238		-2.045811676		-2.102034189
F		1.544148695		0.920145539		-2.07380962
F		-1.497660422		1.669177531		-2.180165911
F		-1.344855886		-1.319396652		-1.247407369
F		-0.434361574		-1.089767109		-3.220637781
F		0.633654396		0.690515198		-0.100578402
F		1.320508934		-2.27544121		-0.128803773
12
-185.77729729
Al		0.270126272		-2.348853111		-1.832055761
Al		2.05412493		-0.536539056		-0.797974424
Al		-0.349202306		0.325514203		-1.806605383
F		3.647597488		-0.174921416		-0.020626523
F		-0.173084274		-4.056243593		-2.235256636
F		2.247250438		-2.075063976		-2.078796889
F		1.545981595		0.953136939		-2.04998002
F		-1.499463422		1.671287031		-2.180752411
F		-1.370138686		-1.324952252		-1.278864569
F		-0.474049774		-1.098955809		-3.220875481
F		0.649892696		0.727139598		-0.107968202
F		1.351161534		-2.30106041		-0.136785973
