12
-185.77729729
Al		0.276474072		-2.327802311		-1.829188961
Al		2.02545853		-0.543278256		-0.787418924
Al		-0.326883606		0.311202603		-1.820027583
F		3.613744088		-0.182891016		-0.006944923
F		-0.165669074		-4.031863593		-2.232088936
F		2.079335838		-1.779936876		-2.303207189
F		1.530517495		0.651304939		-2.26556362
F		-1.473026122		1.654876631		-2.197601811
F		-1.106682486		-1.266022852		-0.968144869
F		-0.160288274		-1.027083409		-3.230040981
F		0.503485096		0.402623398		-0.042009502
F		1.103730134		-2.10064111		-0.064304973
