12
-185.77729729
Al		0.273638772		-2.328517211		-1.823044661
Al		2.05318633		-0.536285256		-0.847511024
Al		-0.351776406		0.304924503		-1.766080083
F		3.647863688		-0.174285816		-0.080889223
F		-0.169157774		-4.032743493		-2.224528036
F		2.144405238		-1.875506076		-2.257383389
F		1.527421495		0.666033139		-2.26221202
F		-1.503657022		1.647151331		-2.131218111
F		-1.214415486		-1.292809852		-1.050959569
F		-0.029991374		-0.994605709		-3.196126581
F		0.504273796		0.387313198		-0.040361002
F		1.018404134		-2.01018061		-0.066228573
