12
-185.77729729
Al		0.272693672		-2.328755511		-1.820996561
Al		2.06242893		-0.533954256		-0.867541724
Al		-0.360074006		0.302831803		-1.748097583
F		3.659236888		-0.171417416		-0.105537323
F		-0.170320674		-4.033036793		-2.222007736
F		2.166095038		-1.907362476		-2.242108789
F		1.526389495		0.670942539		-2.26109482
F		-1.513867322		1.644576231		-2.109090211
F		-1.250326486		-1.301738852		-1.078564469
F		0.013440926		-0.983779809		-3.184821781
F		0.504536696		0.382209798		-0.039811502
F		0.989962134		-1.98002711		-0.066869773
