12
-185.77729729
Al		0.268913272		-2.329708711		-1.812804161
Al		2.09939933		-0.524630256		-0.947664524
Al		-0.393264406		0.294461003		-1.676167583
F		3.704729688		-0.159943816		-0.204129723
F		-0.174972274		-4.034209993		-2.211926536
F		2.252854238		-2.034788076		-2.181010389
F		1.522261495		0.690580139		-2.25662602
F		-1.554708522		1.634275831		-2.020578611
F		-1.393970486		-1.337454852		-1.188984069
F		0.187170126		-0.940476209		-3.139602581
F		0.505588296		0.361796198		-0.037613502
F		0.876194134		-1.85941311		-0.069434573
