12
-185.77729729
Al		0.267023072		-2.330185311		-1.808707961
Al		2.11788453		-0.519968256		-0.987725924
Al		-0.409859606		0.290275603		-1.640202583
F		3.727476088		-0.154207016		-0.253425923
F		-0.177298074		-4.034796593		-2.206885936
F		2.296233838		-2.098500876		-2.150461189
F		1.520197495		0.700398939		-2.25439162
F		-1.575129122		1.629125631		-1.976322811
F		-1.465792486		-1.355312852		-1.244193869
F		0.274034726		-0.918824409		-3.116992981
F		0.506114096		0.351589398		-0.036514502
F		0.819310134		-1.79910611		-0.070716973
