12
-185.77729729
Al		0.266077972		-2.330423611		-1.806659861
Al		2.12712713		-0.517637256		-1.007756624
Al		-0.418157206		0.288182903		-1.622220083
F		3.738849288		-0.151338616		-0.278074023
F		-0.178460974		-4.035089893		-2.204365636
F		2.317923638		-2.130357276		-2.135186589
F		1.519165495		0.705308339		-2.25327442
F		-1.585339422		1.626550531		-1.954194911
F		-1.501703486		-1.364241852		-1.271798769
F		0.317467026		-0.907998509		-3.105688181
F		0.506376996		0.346485998		-0.035965002
F		0.790868134		-1.76895261		-0.071358173
12
-185.77729729
Al		0.267023072		-2.330185311		-1.808707961
Al		2.11788453		-0.519968256		-0.987725924
Al		-0.409859606		0.290275603		-1.640202583
F		3.727476088		-0.154207016		-0.253425923
F		-0.177298074		-4.034796593		-2.206885936
F		2.296233838		-2.098500876		-2.150461189
F		1.520197495		0.700398939		-2.25439162
F		-1.575129122		1.629125631		-1.976322811
F		-1.465792486		-1.355312852		-1.244193869
F		0.274034726		-0.918824409		-3.116992981
F		0.506114096		0.351589398		-0.036514502
F		0.819310134		-1.79910611		-0.070716973
12
-185.77729729
Al		0.267968172		-2.329947011		-1.810756061
Al		2.10864193		-0.522299256		-0.967695224
Al		-0.401562006		0.292368303		-1.658185083
F		3.716102888		-0.157075416		-0.228777823
F		-0.176135174		-4.034503293		-2.209406236
F		2.274544038		-2.066644476		-2.165735789
F		1.521229495		0.695489539		-2.25550882
F		-1.564918822		1.631700731		-1.998450711
F		-1.429881486		-1.346383852		-1.216588969
F		0.230602426		-0.929650309		-3.128297781
F		0.505851196		0.356692798		-0.037064002
F		0.847752134		-1.82925961		-0.070075773
12
-185.77729729
Al		0.268913272		-2.329708711		-1.812804161
Al		2.09939933		-0.524630256		-0.947664524
Al		-0.393264406		0.294461003		-1.676167583
F		3.704729688		-0.159943816		-0.204129723
F		-0.174972274		-4.034209993		-2.211926536
F		2.252854238		-2.034788076		-2.181010389
F		1.522261495		0.690580139		-2.25662602
F		-1.554708522		1.634275831		-2.020578611
F		-1.393970486		-1.337454852		-1.188984069
F		0.187170126		-0.940476209		-3.139602581
F		0.505588296		0.361796198		-0.037613502
F		0.876194134		-1.85941311		-0.069434573
12
-185.77729729
Al		0.269858372		-2.329470411		-1.814852261
Al		2.09015673		-0.526961256		-0.927633824
Al		-0.384966806		0.296553703		-1.694150083
F		3.693356488		-0.162812216		-0.179481623
F		-0.173809374		-4.033916693		-2.214446836
F		2.231164438		-2.002931676		-2.196284989
F		1.523293495		0.685670739		-2.25774322
F		-1.544498222		1.636850931		-2.042706511
F		-1.358059486		-1.328525852		-1.161379169
F		0.143737826		-0.951302109		-3.150907381
F		0.505325396		0.366899598		-0.038163002
F		0.904636134		-1.88956661		-0.068793373
12
-185.77729729
Al		0.270803472		-2.329232111		-1.816900361
Al		2.08091413		-0.529292256		-0.907603124
Al		-0.376669206		0.298646403		-1.712132583
F		3.681983288		-0.165680616		-0.154833523
F		-0.172646474		-4.033623393		-2.216967136
F		2.209474638		-1.971075276		-2.211559589
F		1.524325495		0.680761339		-2.25886042
F		-1.534287922		1.639426031		-2.064834411
F		-1.322148486		-1.319596852		-1.133774269
F		0.100305526		-0.962128009		-3.162212181
F		0.505062496		0.372002998		-0.038712502
F		0.933078134		-1.91972011		-0.068152173
12
-185.77729729
Al		0.271748572		-2.328993811		-1.818948461
Al		2.07167153		-0.531623256		-0.887572424
Al		-0.368371606		0.300739103		-1.730115083
F		3.670610088		-0.168549016		-0.130185423
F		-0.171483574		-4.033330093		-2.219487436
F		2.187784838		-1.939218876		-2.226834189
F		1.525357495		0.675851939		-2.25997762
F		-1.524077622		1.642001131		-2.086962311
F		-1.286237486		-1.310667852		-1.106169369
F		0.056873226		-0.972953909		-3.173516981
F		0.504799596		0.377106398		-0.039262002
F		0.961520134		-1.94987361		-0.067510973
12
-185.77729729
Al		0.272693672		-2.328755511		-1.820996561
Al		2.06242893		-0.533954256		-0.867541724
Al		-0.360074006		0.302831803		-1.748097583
F		3.659236888		-0.171417416		-0.105537323
F		-0.170320674		-4.033036793		-2.222007736
F		2.166095038		-1.907362476		-2.242108789
F		1.526389495		0.670942539		-2.26109482
F		-1.513867322		1.644576231		-2.109090211
F		-1.250326486		-1.301738852		-1.078564469
F		0.013440926		-0.983779809		-3.184821781
F		0.504536696		0.382209798		-0.039811502
F		0.989962134		-1.98002711		-0.066869773
12
-185.77729729
Al		0.273638772		-2.328517211		-1.823044661
Al		2.05318633		-0.536285256		-0.847511024
Al		-0.351776406		0.304924503		-1.766080083
F		3.647863688		-0.174285816		-0.080889223
F		-0.169157774		-4.032743493		-2.224528036
F		2.144405238		-1.875506076		-2.257383389
F		1.527421495		0.666033139		-2.26221202
F		-1.503657022		1.647151331		-2.131218111
F		-1.214415486		-1.292809852		-1.050959569
F		-0.029991374		-0.994605709		-3.196126581
F		0.504273796		0.387313198		-0.040361002
F		1.018404134		-2.01018061		-0.066228573
12
-185.77729729
Al		0.274583872		-2.328278911		-1.825092761
Al		2.04394373		-0.538616256		-0.827480324
Al		-0.343478806		0.307017203		-1.784062583
F		3.636490488		-0.177154216		-0.056241123
F		-0.167994874		-4.032450193		-2.227048336
F		2.122715438		-1.843649676		-2.272657989
F		1.528453495		0.661123739		-2.26332922
F		-1.493446722		1.649726431		-2.153346011
F		-1.178504486		-1.283880852		-1.023354669
F		-0.073423674		-1.005431609		-3.207431381
F		0.504010896		0.392416598		-0.040910502
F		1.046846134		-2.04033411		-0.065587373
12
-185.77729729
Al		0.275528972		-2.328040611		-1.827140861
Al		2.03470113		-0.540947256		-0.807449624
Al		-0.335181206		0.309109903		-1.802045083
F		3.625117288		-0.180022616		-0.031593023
F		-0.166831974		-4.032156893		-2.229568636
F		2.101025638		-1.811793276		-2.287932589
F		1.529485495		0.656214339		-2.26444642
F		-1.483236422		1.652301531		-2.175473911
F		-1.142593486		-1.274951852		-0.995749769
F		-0.116855974		-1.016257509		-3.218736181
F		0.503747996		0.397519998		-0.041460002
F		1.075288134		-2.07048761		-0.064946173
12
-185.77729729
Al		0.276474072		-2.327802311		-1.829188961
Al		2.02545853		-0.543278256		-0.787418924
Al		-0.326883606		0.311202603		-1.820027583
F		3.613744088		-0.182891016		-0.006944923
F		-0.165669074		-4.031863593		-2.232088936
F		2.079335838		-1.779936876		-2.303207189
F		1.530517495		0.651304939		-2.26556362
F		-1.473026122		1.654876631		-2.197601811
F		-1.106682486		-1.266022852		-0.968144869
F		-0.160288274		-1.027083409		-3.230040981
F		0.503485096		0.402623398		-0.042009502
F		1.103730134		-2.10064111		-0.064304973
12
-185.77729729
Al		0.277419172		-2.327564011		-1.831237061
Al		2.01621593		-0.545609256		-0.767388224
Al		-0.318586006		0.313295303		-1.838010083
F		3.602370888		-0.185759416		0.017703177
F		-0.164506174		-4.031570293		-2.234609236
F		2.057646038		-1.748080476		-2.318481789
F		1.531549495		0.646395539		-2.26668082
F		-1.462815822		1.657451731		-2.219729711
F		-1.070771486		-1.257093852		-0.940539969
F		-0.203720574		-1.037909309		-3.241345781
F		0.503222196		0.407726798		-0.042559002
F		1.132172134		-2.13079461		-0.063663773
12
-185.77729729
Al		0.278364272		-2.327325711		-1.833285161
Al		2.00697333		-0.547940256		-0.747357524
Al		-0.310288406		0.315388003		-1.855992583
F		3.590997688		-0.188627816		0.042351277
F		-0.163343274		-4.031276993		-2.237129536
F		2.035956238		-1.716224076		-2.333756389
F		1.532581495		0.641486139		-2.26779802
F		-1.452605522		1.660026831		-2.241857611
F		-1.034860486		-1.248164852		-0.912935069
F		-0.247152874		-1.048735209		-3.252650581
F		0.502959296		0.412830198		-0.043108502
F		1.160614134		-2.16094811		-0.063022573
12
-185.77729729
Al		0.279309372		-2.327087411		-1.835333261
Al		1.99773073		-0.550271256		-0.727326824
Al		-0.301990806		0.317480703		-1.873975083
F		3.579624488		-0.191496216		0.066999377
F		-0.162180374		-4.030983693		-2.239649836
F		2.014266438		-1.684367676		-2.349030989
F		1.533613495		0.636576739		-2.26891522
F		-1.442395222		1.662601931		-2.263985511
F		-0.998949486		-1.239235852		-0.885330169
F		-0.290585174		-1.059561109		-3.263955381
F		0.502696396		0.417933598		-0.043658002
F		1.189056134		-2.19110161		-0.062381373
12
-185.77729729
Al		0.280254472		-2.326849111		-1.837381361
Al		1.98848813		-0.552602256		-0.707296124
Al		-0.293693206		0.319573403		-1.891957583
F		3.568251288		-0.194364616		0.091647477
F		-0.161017474		-4.030690393		-2.242170136
F		1.992576638		-1.652511276		-2.364305589
F		1.534645495		0.631667339		-2.27003242
F		-1.432184922		1.665177031		-2.286113411
F		-0.963038486		-1.230306852		-0.857725269
F		-0.334017474		-1.070387009		-3.275260181
F		0.502433496		0.423036998		-0.044207502
F		1.217498134		-2.22125511		-0.061740173
12
-185.77729729
Al		0.281199572		-2.326610811		-1.839429461
Al		1.97924553		-0.554933256		-0.687265424
Al		-0.285395606		0.321666103		-1.909940083
F		3.556878088		-0.197233016		0.116295577
F		-0.159854574		-4.030397093		-2.244690436
F		1.970886838		-1.620654876		-2.379580189
F		1.535677495		0.626757939		-2.27114962
F		-1.421974622		1.667752131		-2.308241311
F		-0.927127486		-1.221377852		-0.830120369
F		-0.377449774		-1.081212909		-3.286564981
F		0.502170596		0.428140398		-0.044757002
F		1.245940134		-2.25140861		-0.061098973
12
-185.77729729
Al		0.282144672		-2.326372511		-1.841477561
Al		1.97000293		-0.557264256		-0.667234724
Al		-0.277098006		0.323758803		-1.927922583
F		3.545504888		-0.200101416		0.140943677
F		-0.158691674		-4.030103793		-2.247210736
F		1.949197038		-1.588798476		-2.394854789
F		1.536709495		0.621848539		-2.27226682
F		-1.411764322		1.670327231		-2.330369211
F		-0.891216486		-1.212448852		-0.802515469
F		-0.420882074		-1.092038809		-3.297869781
F		0.501907696		0.433243798		-0.045306502
F		1.274382134		-2.28156211		-0.060457773
12
-185.77729729
Al		0.283089772		-2.326134211		-1.843525661
Al		1.96076033		-0.559595256		-0.647204024
Al		-0.268800406		0.325851503		-1.945905083
F		3.534131688		-0.202969816		0.165591777
F		-0.157528774		-4.029810493		-2.249731036
F		1.927507238		-1.556942076		-2.410129389
F		1.537741495		0.616939139		-2.27338402
F		-1.401554022		1.672902331		-2.352497111
F		-0.855305486		-1.203519852		-0.774910569
F		-0.464314374		-1.102864709		-3.309174581
F		0.501644796		0.438347198		-0.045856002
F		1.302824134		-2.31171561		-0.059816573
12
-185.77729729
Al		0.284034872		-2.325895911		-1.845573761
Al		1.95151773		-0.561926256		-0.627173324
Al		-0.260502806		0.327944203		-1.963887583
F		3.522758488		-0.205838216		0.190239877
F		-0.156365874		-4.029517193		-2.252251336
F		1.905817438		-1.525085676		-2.425403989
F		1.538773495		0.612029739		-2.27450122
F		-1.391343722		1.675477431		-2.374625011
F		-0.819394486		-1.194590852		-0.747305669
F		-0.507746674		-1.113690609		-3.320479381
F		0.501381896		0.443450598		-0.046405502
F		1.331266134		-2.34186911		-0.059175373
