12
Properties=species:S:1:pos:R:3:forces:R:3 energy=-186.17978678 pbc="F F F"
Al    0.004505342999999995    1.6992653960000002    2.222888521    0.009381    0.36567    0.97207
Al    2.306055496    2.640320225    1.5501363750000001    -0.313092    0.110658    -0.511472
Al    1.516598058    2.6739499810000003    -0.43048905300000007    0.555167    0.245042    0.046054
F    1.000152552    3.244764119    2.973471032    -0.086143    0.216414    0.049159
F    -1.551775147    2.631718143    2.194134095    -0.274284    0.182691    -0.048689
F    -0.51115606    0.058020982    2.72193726    -0.145212    -0.328434    -0.070197
F    2.057753769    0.814159785    1.964928434    0.835571    -0.082197    -0.265965
F    3.2281671419999998    1.551448872    -0.363439854    0.180581    -0.206747    0.305176
F    1.119200714    2.930872152    -2.0375354039999998    -0.18999    -0.073671    -0.116006
F    1.7257936680000001    4.365836587    0.805497665    0.224687    0.01464    0.481467
F    3.7348965659999998    2.995805011    2.300137968    -0.22847    -0.128651    -0.141344
F    -0.1876448    1.7397141680000001    -0.105930295    -0.568196    -0.315418    -0.700252
