      12
SCF Done            -186.17978678
Al           -0.089396657         1.659085396         2.258403521
Al            2.512152496         2.611092225         1.739558375
Al            1.385660058         2.678063981        -0.657134053
F             0.997931552         3.118060119         2.844719032
F            -1.602937147         2.702221143         2.172200095
F            -0.505866060        -0.055279018         2.749487260
F             1.890817769         0.860474785         1.910566434
F             2.984944142         1.837615872        -0.045250854
F             1.073823714         3.030672152        -2.409296404
F             1.765794668         4.023013587         0.675247665
F             4.084003566         3.112168011         2.444550968
F            -0.050788800         1.781199168         0.113013705
