12
Properties=species:S:1:pos:R:3:forces:R:3 energy=-180.47587806 pbc="F F F"
Al    -0.12482322800000001    -2.251197811    -1.712453261    -2.42318    2.675554    8.060605
Al    2.00042493    -0.892412456    -0.573687024    -6.618374    -1.586247    5.628876
Al    -0.22840940599999998    0.501034703    -1.4399634829999999    -0.966783    -3.613449    8.000761
F    3.632093288    -0.17172881599999998    -0.049752423000000004    0.63488    0.150763    -0.392859
F    -0.152877974    -4.032028093    -2.245459036    0.161629    -0.330017    -0.667182
F    2.1759544379999998    -1.870349876    -2.422074389    2.323296    -0.478778    -3.169058
F    1.641385895    0.718727339    -2.36743842    1.863107    1.508398    -3.150146
F    -1.478948422    1.650237331    -2.196079311    -0.00267    0.379459    -0.660429
F    -0.919728686    -1.704984252    -1.104861369    3.466238    0.824446    -2.283292
F    -0.120950974    -0.9741269089999999    -3.377624581    0.537516    0.161768    -3.918515
F    0.13746179600000002    0.500675198    -0.360365402    0.94909    -1.732648    -3.742336
F    1.4014441340000001    -1.6975114100000002    -0.03294877299999999    0.075252    2.040751    -3.706425
