12
Properties=species:S:1:pos:R:3:forces:R:3 energy=-187.23966149 pbc="F F F"
Al    0.375057593    -0.5710941580000001    1.782859339    0.031332    -0.020137    0.105867
Al    2.332358965    -1.827306672    -0.560248497    -0.065681    0.038012    -0.071801
Al    -0.9046853810000001    -1.8107423580000002    -1.027188743    0.017112    -0.022337    -0.026658
F    3.326773307    -0.37161719299999996    -1.04424078    0.061926    0.081504    -0.031433
F    -1.801216254    -0.811658888    -2.287886197    -0.0526    0.070977    -0.067879
F    2.926395195    -3.546016494    -0.600151243    0.037081    -0.127048    -0.012456
F    -1.2521175660000001    -3.591548002    -0.57622272    -0.011262    -0.092085    -0.000198
F    1.7512495970000002    -1.6162641930000001    1.167325602    0.037388    -0.038992    0.082176
F    0.834084164    -1.682521082    -1.588054265    0.040085    1.8e-05    0.006084
F    -0.10513764800000001    -1.4663435630000001    3.332025889    -0.010038    -0.013166    0.032056
F    0.822369971    1.2503418990000001    1.663725936    0.018655    0.145514    -0.035664
F    -1.062337468    -0.8242789829999999    0.571060214    -0.103996    -0.022256    0.019901
