12
-185.77729729
Al		0.27534683		-2.328086548		-1.82674612
Al		2.034518988		-0.540993191		-0.807054883
Al		-0.335363347		0.309063968		-1.801650341
F		3.6251313		-0.180019082		-0.031623386
F		-0.166817964		-4.03215336		-2.229599
F		2.101194374		-1.811846315		-2.288130738
F		1.529612914		0.656339722		-2.264642868
F		-1.483222413		1.652305065		-2.175504275
F		-1.142398845		-1.274905117		-0.995924353
F		-0.11684757		-1.016253039		-3.219001619
F		0.503823615		0.397445828		-0.041703576
F		1.075322431		-2.070383361		-0.06518805
