12
-185.77729729
Al		0.272250416		-2.328867477		-1.820035523
Al		2.031422574		-0.54177412		-0.800344286
Al		-0.338459761		0.308283039		-1.794939744
F		3.62536947		-0.179959021		-0.032139574
F		-0.166579794		-4.032093299		-2.230115188
F		2.10406292		-1.812748012		-2.291499254
F		1.531779037		0.658471182		-2.267982518
F		-1.482984243		1.652365126		-2.176020463
F		-1.139089999		-1.274110605		-0.998892315
F		-0.11670477		-1.016177032		-3.223514082
F		0.505109121		0.396184887		-0.045844334
F		1.075905531		-2.068611162		-0.069299942
