12
-185.77729729
Al		0.27079328		-2.329234973		-1.816877595
Al		2.029965438		-0.542141616		-0.797186358
Al		-0.339916897		0.307915543		-1.791781816
F		3.62548155		-0.179930757		-0.032382486
F		-0.166467714		-4.032065035		-2.2303581
F		2.105412824		-1.81317234		-2.293084438
F		1.532798389		0.659474222		-2.269554118
F		-1.482872163		1.65239339		-2.176263375
F		-1.137532895		-1.273736717		-1.000289003
F		-0.11663757		-1.016141264		-3.225637594
F		0.505714065		0.395591503		-0.047792926
F		1.076179931		-2.067777186		-0.07123495
