12
-185.77729729
Al		0.270611138		-2.32928091		-1.816482854
Al		2.029783296		-0.542187553		-0.796791617
Al		-0.340099039		0.307869606		-1.791387075
F		3.62549556		-0.179927224		-0.03241285
F		-0.166453704		-4.032061502		-2.230388464
F		2.105581562		-1.813225381		-2.293282586
F		1.532925808		0.659599602		-2.269750568
F		-1.482858153		1.652396923		-2.176293739
F		-1.137338257		-1.273689981		-1.000463589
F		-0.11662917		-1.016136793		-3.225903033
F		0.505789683		0.39551733		-0.0480365
F		1.076214231		-2.067672939		-0.071476826
