12
-185.77729729
Al		0.270246854		-2.329372784		-1.815693372
Al		2.029419012		-0.542279427		-0.796002135
Al		-0.340463323		0.307777732		-1.790597593
F		3.62552358		-0.179920158		-0.032473578
F		-0.166425684		-4.032054436		-2.230449192
F		2.105919038		-1.813331463		-2.293678882
F		1.533180646		0.659850362		-2.270143468
F		-1.482830133		1.652403989		-2.176354467
F		-1.136948981		-1.273596509		-1.000812761
F		-0.11661237		-1.016127851		-3.226433911
F		0.505940919		0.395368984		-0.048523648
F		1.076282831		-2.067464445		-0.071960578
