12
-185.77729729
Al		0.270064712		-2.329418721		-1.815298631
Al		2.02923687		-0.542325364		-0.795607394
Al		-0.340645465		0.307731795		-1.790202852
F		3.62553759		-0.179916625		-0.032503942
F		-0.166411674		-4.032050903		-2.230479556
F		2.106087776		-1.813384504		-2.29387703
F		1.533308065		0.659975742		-2.270339918
F		-1.482816123		1.652407522		-2.176384831
F		-1.136754343		-1.273549773		-1.000987347
F		-0.11660397		-1.01612338		-3.22669935
F		0.506016537		0.395294811		-0.048767222
F		1.076317131		-2.067360198		-0.072202454
