12
-185.77729729
Al		0.26988257		-2.329464658		-1.81490389
Al		2.029054728		-0.542371301		-0.795212653
Al		-0.340827607		0.307685858		-1.789808111
F		3.6255516		-0.179913092		-0.032534306
F		-0.166397664		-4.03204737		-2.23050992
F		2.106256514		-1.813437545		-2.294075178
F		1.533435484		0.660101122		-2.270536368
F		-1.482802113		1.652411055		-2.176415195
F		-1.136559705		-1.273503037		-1.001161933
F		-0.11659557		-1.016118909		-3.226964789
F		0.506092155		0.395220638		-0.049010796
F		1.076351431		-2.067255951		-0.07244433
