12
-185.77729729
Al		0.268607576		-2.329786217		-1.812140703
Al		2.027779734		-0.54269286		-0.792449466
Al		-0.342102601		0.307364299		-1.787044924
F		3.62564967		-0.179888361		-0.032746854
F		-0.166299594		-4.032022639		-2.230722468
F		2.10743768		-1.813808832		-2.295462214
F		1.534327417		0.660978782		-2.271911518
F		-1.482704043		1.652435786		-2.176627743
F		-1.135197239		-1.273175885		-1.002384035
F		-0.11653677		-1.016087612		-3.228822862
F		0.506621481		0.394701427		-0.050715814
F		1.076591531		-2.066526222		-0.074137462
