12
-185.77729729
Al		0.274800404		-2.328224359		-1.825561897
Al		2.033972562		-0.541131002		-0.80587066
Al		-0.335909773		0.308926157		-1.800466118
F		3.62517333		-0.180008483		-0.031714478
F		-0.166775934		-4.032142761		-2.229690092
F		2.101700588		-1.812005438		-2.288725182
F		1.529995171		0.656715862		-2.265232218
F		-1.483180383		1.652315664		-2.175595367
F		-1.141814931		-1.274764909		-0.996448111
F		-0.11682237		-1.016239626		-3.219797936
F		0.504050469		0.397223309		-0.042434298
F		1.075425331		-2.07007062		-0.065913678
