12
-185.77729729
Al		0.267879008		-2.329969965		-1.810561739
Al		2.027051166		-0.542876608		-0.790870502
Al		-0.342831169		0.307180551		-1.78546596
F		3.62570571		-0.179874229		-0.03286831
F		-0.166243554		-4.032008507		-2.230843924
F		2.108112632		-1.814020996		-2.296254806
F		1.534837093		0.661480302		-2.272697318
F		-1.482648003		1.652449918		-2.176749199
F		-1.134418687		-1.272988941		-1.003082379
F		-0.11650317		-1.016069728		-3.229884618
F		0.506923953		0.394404735		-0.05169011
F		1.076728731		-2.066109234		-0.075104966
