12
-185.77729729
Al		0.267332582		-2.330107776		-1.809377516
Al		2.02650474		-0.543014419		-0.789686279
Al		-0.343377595		0.30704274		-1.784281737
F		3.62574774		-0.17986363		-0.032959402
F		-0.166201524		-4.031997908		-2.230935016
F		2.108618846		-1.814180119		-2.29684925
F		1.53521935		0.661856442		-2.273286668
F		-1.482605973		1.652460517		-2.176840291
F		-1.133834773		-1.272848733		-1.003606137
F		-0.11647797		-1.016056315		-3.230680935
F		0.507150807		0.394182216		-0.052420832
F		1.076831631		-2.065796493		-0.075830594
