12
-185.77729729
Al		0.26715044		-2.330153713		-1.808982775
Al		2.026322598		-0.543060356		-0.789291538
Al		-0.343559737		0.306996803		-1.783886996
F		3.62576175		-0.179860097		-0.032989766
F		-0.166187514		-4.031994375		-2.23096538
F		2.108787584		-1.81423316		-2.297047398
F		1.535346769		0.661981822		-2.273483118
F		-1.482591963		1.65246405		-2.176870655
F		-1.133640135		-1.272801997		-1.003780723
F		-0.11646957		-1.016051844		-3.230946374
F		0.507226425		0.394108043		-0.052664406
F		1.076865931		-2.065692246		-0.07607247
