12
-185.77729729
Al		0.266786156		-2.330245587		-1.808193293
Al		2.025958314		-0.54315223		-0.788502056
Al		-0.343924021		0.306904929		-1.783097514
F		3.62578977		-0.179853031		-0.033050494
F		-0.166159494		-4.031987309		-2.231026108
F		2.10912506		-1.814339242		-2.297443694
F		1.535601607		0.662232582		-2.273876018
F		-1.482563943		1.652471116		-2.176931383
F		-1.133250859		-1.272708525		-1.004129895
F		-0.11645277		-1.016042902		-3.231477252
F		0.507377661		0.393959697		-0.053151554
F		1.076934531		-2.065483752		-0.076556222
