12
-185.77729729
Al		0.26623973		-2.330383398		-1.80700907
Al		2.025411888		-0.543290041		-0.787317833
Al		-0.344470447		0.306767118		-1.781913291
F		3.6258318		-0.179842432		-0.033141586
F		-0.166117464		-4.03197671		-2.2311172
F		2.109631274		-1.814498365		-2.298038138
F		1.535983864		0.662608722		-2.274465368
F		-1.482521913		1.652481715		-2.177022475
F		-1.132666945		-1.272568317		-1.004653653
F		-0.11642757		-1.016029489		-3.232273569
F		0.507604515		0.393737178		-0.053882276
F		1.077037431		-2.065171011		-0.07728185
