12
-185.77729729
Al		0.265875446		-2.330475272		-1.806219588
Al		2.025047604		-0.543381915		-0.786528351
Al		-0.344834731		0.306675244		-1.781123809
F		3.62585982		-0.179835366		-0.033202314
F		-0.166089444		-4.031969644		-2.231177928
F		2.10996875		-1.814604447		-2.298434434
F		1.536238702		0.662859482		-2.274858268
F		-1.482493893		1.652488781		-2.177083203
F		-1.132277669		-1.272474845		-1.005002825
F		-0.11641077		-1.016020547		-3.232804447
F		0.507755751		0.393588832		-0.054369424
F		1.077106031		-2.064962517		-0.077765602
