12
-185.77729729
Al		0.265146878		-2.33065902		-1.804640624
Al		2.024319036		-0.543565663		-0.784949387
Al		-0.345563299		0.306491496		-1.779544845
F		3.62591586		-0.179821234		-0.03332377
F		-0.166033404		-4.031955512		-2.231299384
F		2.110643702		-1.814816611		-2.299227026
F		1.536748378		0.663361002		-2.275644068
F		-1.482437853		1.652502913		-2.177204659
F		-1.131499117		-1.272287901		-1.005701169
F		-0.11637717		-1.016002663		-3.233866203
F		0.508058223		0.39329214		-0.05534372
F		1.077243231		-2.064545529		-0.078733106
