12
-185.77729729
Al		0.264964736		-2.330704957		-1.804245883
Al		2.024136894		-0.5436116		-0.784554646
Al		-0.345745441		0.306445559		-1.779150104
F		3.62592987		-0.179817701		-0.033354134
F		-0.166019394		-4.031951979		-2.231329748
F		2.11081244		-1.814869652		-2.299425174
F		1.536875797		0.663486382		-2.275840518
F		-1.482423843		1.652506446		-2.177235023
F		-1.131304479		-1.272241165		-1.005875755
F		-0.11636877		-1.015998192		-3.234131642
F		0.508133841		0.393217967		-0.055587294
F		1.077277531		-2.064441282		-0.078974982
