12
-185.77729729
Al		0.27443612		-2.328316233		-1.824772415
Al		2.033608278		-0.541222876		-0.805081178
Al		-0.336274057		0.308834283		-1.799676636
F		3.62520135		-0.180001417		-0.031775206
F		-0.166747914		-4.032135695		-2.22975082
F		2.102038064		-1.81211152		-2.289121478
F		1.530250009		0.656966622		-2.265625118
F		-1.483152363		1.65232273		-2.175656095
F		-1.141425655		-1.274671437		-0.996797283
F		-0.11680557		-1.016230684		-3.220328814
F		0.504201705		0.397074963		-0.042921446
F		1.075493931		-2.069862126		-0.06639743
