12
-185.77729729
Al		0.264600452		-2.330796831		-1.803456401
Al		2.02377261		-0.543703474		-0.783765164
Al		-0.346109725		0.306353685		-1.778360622
F		3.62595789		-0.179810635		-0.033414862
F		-0.165991374		-4.031944913		-2.231390476
F		2.111149916		-1.814975734		-2.29982147
F		1.537130635		0.663737142		-2.276233418
F		-1.482395823		1.652513512		-2.177295751
F		-1.130915203		-1.272147693		-1.006224927
F		-0.11635197		-1.01598925		-3.23466252
F		0.508285077		0.393069621		-0.056074442
F		1.077346131		-2.064232788		-0.079458734
