12
-185.77729729
Al		0.264054026		-2.330934642		-1.802272178
Al		2.023226184		-0.543841285		-0.782580941
Al		-0.346656151		0.306215874		-1.777176399
F		3.62599992		-0.179800036		-0.033505954
F		-0.165949344		-4.031934314		-2.231481568
F		2.11165613		-1.815134857		-2.300415914
F		1.537512892		0.664113282		-2.276822768
F		-1.482353793		1.652524111		-2.177386843
F		-1.130331289		-1.272007485		-1.006748685
F		-0.11632677		-1.015975837		-3.235458837
F		0.508511931		0.392847102		-0.056805164
F		1.077449031		-2.063920047		-0.080184362
