12
-185.77729729
Al		0.263871884		-2.330980579		-1.801877437
Al		2.023044042		-0.543887222		-0.7821862
Al		-0.346838293		0.306169937		-1.776781658
F		3.62601393		-0.179796503		-0.033536318
F		-0.165935334		-4.031930781		-2.231511932
F		2.111824868		-1.815187898		-2.300614062
F		1.537640311		0.664238662		-2.277019218
F		-1.482339783		1.652527644		-2.177417207
F		-1.130136651		-1.271960749		-1.006923271
F		-0.11631837		-1.015971366		-3.235724276
F		0.508587549		0.392772929		-0.057048738
F		1.077483331		-2.0638158		-0.080426238
