12
-185.77729729
Al		0.263689742		-2.331026516		-1.801482696
Al		2.0228619		-0.543933159		-0.781791459
Al		-0.347020435		0.306124		-1.776386917
F		3.62602794		-0.17979297		-0.033566682
F		-0.165921324		-4.031927248		-2.231542296
F		2.111993606		-1.815240939		-2.30081221
F		1.53776773		0.664364042		-2.277215668
F		-1.482325773		1.652531177		-2.177447571
F		-1.129942013		-1.271914013		-1.007097857
F		-0.11630997		-1.015966895		-3.235989715
F		0.508663167		0.392698756		-0.057292312
F		1.077517631		-2.063711553		-0.080668114
