12
-185.77729729
Al		0.261504038		-2.33157776		-1.796745804
Al		2.020676196		-0.544484403		-0.777054567
Al		-0.349206139		0.305572756		-1.771650025
F		3.62619606		-0.179750574		-0.03393105
F		-0.165753204		-4.031884852		-2.231906664
F		2.114018462		-1.815877431		-2.303189986
F		1.539296758		0.665868602		-2.279573068
F		-1.482157653		1.652573573		-2.177811939
F		-1.127606357		-1.271353181		-1.009192889
F		-0.11620917		-1.015913243		-3.239174983
F		0.509570583		0.39180868		-0.0602152
F		1.077929231		-2.062460589		-0.083570626
