12
-185.77729729
Al		0.261321896		-2.331623697		-1.796351063
Al		2.020494054		-0.54453034		-0.776659826
Al		-0.349388281		0.305526819		-1.771255284
F		3.62621007		-0.179747041		-0.033961414
F		-0.165739194		-4.031881319		-2.231937028
F		2.1141872		-1.815930472		-2.303388134
F		1.539424177		0.665993982		-2.279769518
F		-1.482143643		1.652577106		-2.177842303
F		-1.127411719		-1.271306445		-1.009367475
F		-0.11620077		-1.015908772		-3.239440422
F		0.509646201		0.391734507		-0.060458774
F		1.077963531		-2.062356342		-0.083812502
