12
-185.77729729
Al		0.261139754		-2.331669634		-1.795956322
Al		2.020311912		-0.544576277		-0.776265085
Al		-0.349570423		0.305480882		-1.770860543
F		3.62622408		-0.179743508		-0.033991778
F		-0.165725184		-4.031877786		-2.231967392
F		2.114355938		-1.815983513		-2.303586282
F		1.539551596		0.666119362		-2.279965968
F		-1.482129633		1.652580639		-2.177872667
F		-1.127217081		-1.271259709		-1.009542061
F		-0.11619237		-1.015904301		-3.239705861
F		0.509721819		0.391660334		-0.060702348
F		1.077997831		-2.062252095		-0.084054378
