12
-185.77729729
Al		0.26077547		-2.331761508		-1.79516684
Al		2.019947628		-0.544668151		-0.775475603
Al		-0.349934707		0.305389008		-1.770071061
F		3.6262521		-0.179736442		-0.034052506
F		-0.165697164		-4.03187072		-2.23202812
F		2.114693414		-1.816089595		-2.303982578
F		1.539806434		0.666370122		-2.280358868
F		-1.482101613		1.652587705		-2.177933395
F		-1.126827805		-1.271166237		-1.009891233
F		-0.11617557		-1.015895359		-3.240236739
F		0.509873055		0.391511988		-0.061189496
F		1.078066431		-2.062043601		-0.08453813
