12
-185.77729729
Al		0.275711114		-2.327994674		-1.827535602
Al		2.034883272		-0.540901317		-0.807844365
Al		-0.334999063		0.309155842		-1.802439823
F		3.62510328		-0.180026148		-0.031562658
F		-0.166845984		-4.032160426		-2.229538272
F		2.100856898		-1.811740233		-2.287734442
F		1.529358076		0.656088962		-2.264249968
F		-1.483250433		1.652297999		-2.175443547
F		-1.142788121		-1.274998589		-0.995575181
F		-0.11686437		-1.016261981		-3.218470741
F		0.503672379		0.397594174		-0.041216428
F		1.075253831		-2.070591855		-0.064704298
