12
-185.77729729
Al		0.27807896		-2.327397493		-1.832667235
Al		2.037251118		-0.540304136		-0.812975998
Al		-0.332631217		0.309753023		-1.807571456
F		3.62492115		-0.180072077		-0.031167926
F		-0.167028114		-4.032206355		-2.22914354
F		2.098663304		-1.8110507		-2.285158518
F		1.527701629		0.654459022		-2.261696118
F		-1.483432563		1.65225207		-2.175048815
F		-1.145318415		-1.275606157		-0.993305563
F		-0.11697357		-1.016320104		-3.215020034
F		0.502689345		0.398558423		-0.038049966
F		1.074807931		-2.071947066		-0.06155991
