12
-185.77729729
Al		0.278261102		-2.327351556		-1.833061976
Al		2.03743326		-0.540258199		-0.813370739
Al		-0.332449075		0.30979896		-1.807966197
F		3.62490714		-0.18007561		-0.031137562
F		-0.167042124		-4.032209888		-2.229113176
F		2.098494566		-1.810997659		-2.28496037
F		1.52757421		0.654333642		-2.261499668
F		-1.483446573		1.652248537		-2.175018451
F		-1.145513053		-1.275652893		-0.993130977
F		-0.11698197		-1.016324575		-3.214754595
F		0.502613727		0.398632596		-0.037806392
F		1.074773631		-2.072051313		-0.061318034
