12
-185.77729729
Al		0.278443244		-2.327305619		-1.833456717
Al		2.037615402		-0.540212262		-0.81376548
Al		-0.332266933		0.309844897		-1.808360938
F		3.62489313		-0.180079143		-0.031107198
F		-0.167056134		-4.032213421		-2.229082812
F		2.098325828		-1.810944618		-2.284762222
F		1.527446791		0.654208262		-2.261303218
F		-1.483460583		1.652245004		-2.174988087
F		-1.145707691		-1.275699629		-0.992956391
F		-0.11699037		-1.016329046		-3.214489156
F		0.502538109		0.398706769		-0.037562818
F		1.074739331		-2.07215556		-0.061076158
