12
-185.77729729
Al		0.278625386		-2.327259682		-1.833851458
Al		2.037797544		-0.540166325		-0.814160221
Al		-0.332084791		0.309890834		-1.808755679
F		3.62487912		-0.180082676		-0.031076834
F		-0.167070144		-4.032216954		-2.229052448
F		2.09815709		-1.810891577		-2.284564074
F		1.527319372		0.654082882		-2.261106768
F		-1.483474593		1.652241471		-2.174957723
F		-1.145902329		-1.275746365		-0.992781805
F		-0.11699877		-1.016333517		-3.214223717
F		0.502462491		0.398780942		-0.037319244
F		1.074705031		-2.072259807		-0.060834282
