12
-185.77729729
Al		0.278807528		-2.327213745		-1.834246199
Al		2.037979686		-0.540120388		-0.814554962
Al		-0.331902649		0.309936771		-1.80915042
F		3.62486511		-0.180086209		-0.03104647
F		-0.167084154		-4.032220487		-2.229022084
F		2.097988352		-1.810838536		-2.284365926
F		1.527191953		0.653957502		-2.260910318
F		-1.483488603		1.652237938		-2.174927359
F		-1.146096967		-1.275793101		-0.992607219
F		-0.11700717		-1.016337988		-3.213958278
F		0.502386873		0.398855115		-0.03707567
F		1.074670731		-2.072364054		-0.060592406
