12
-185.77729729
Al		0.279718238		-2.32698406		-1.836219904
Al		2.038890396		-0.539890703		-0.816528667
Al		-0.330991939		0.310166456		-1.811124125
F		3.62479506		-0.180103874		-0.03089465
F		-0.167154204		-4.032238152		-2.228870264
F		2.097144662		-1.810573331		-2.283375186
F		1.526554858		0.653330602		-2.259928068
F		-1.483558653		1.652220273		-2.174775539
F		-1.147070157		-1.276026781		-0.991734289
F		-0.11704917		-1.016360343		-3.212631083
F		0.502008783		0.39922598		-0.0358578
F		1.074499231		-2.072885289		-0.059383026
