12
-185.77729729
Al		0.280264664		-2.326846249		-1.837404127
Al		2.039436822		-0.539752892		-0.81771289
Al		-0.330445513		0.310304267		-1.812308348
F		3.62475303		-0.180114473		-0.030803558
F		-0.167196234		-4.032248751		-2.228779172
F		2.096638448		-1.810414208		-2.282780742
F		1.526172601		0.652954462		-2.259338718
F		-1.483600683		1.652209674		-2.174684447
F		-1.147654071		-1.276166989		-0.991210531
F		-0.11707437		-1.016373756		-3.211834766
F		0.501781929		0.399448499		-0.035127078
F		1.074396331		-2.07319803		-0.058657398
