12
-185.77729729
Al		0.280446806		-2.326800312		-1.837798868
Al		2.039618964		-0.539706955		-0.818107631
Al		-0.330263371		0.310350204		-1.812703089
F		3.62473902		-0.180118006		-0.030773194
F		-0.167210244		-4.032252284		-2.228748808
F		2.09646971		-1.810361167		-2.282582594
F		1.526045182		0.652829082		-2.259142268
F		-1.483614693		1.652206141		-2.174654083
F		-1.147848709		-1.276213725		-0.991035945
F		-0.11708277		-1.016378227		-3.211569327
F		0.501706311		0.399522672		-0.034883504
F		1.074362031		-2.073302277		-0.058415522
