12
-185.77729729
Al		0.280628948		-2.326754375		-1.838193609
Al		2.039801106		-0.539661018		-0.818502372
Al		-0.330081229		0.310396141		-1.81309783
F		3.62472501		-0.180121539		-0.03074283
F		-0.167224254		-4.032255817		-2.228718444
F		2.096300972		-1.810308126		-2.282384446
F		1.525917763		0.652703702		-2.258945818
F		-1.483628703		1.652202608		-2.174623719
F		-1.148043347		-1.276260461		-0.990861359
F		-0.11709117		-1.016382698		-3.211303888
F		0.501630693		0.399596845		-0.03463993
F		1.074327731		-2.073406524		-0.058173646
