12
-185.77729729
Al		0.28081109		-2.326708438		-1.83858835
Al		2.039983248		-0.539615081		-0.818897113
Al		-0.329899087		0.310442078		-1.813492571
F		3.624711		-0.180125072		-0.030712466
F		-0.167238264		-4.03225935		-2.22868808
F		2.096132234		-1.810255085		-2.282186298
F		1.525790344		0.652578322		-2.258749368
F		-1.483642713		1.652199075		-2.174593355
F		-1.148237985		-1.276307197		-0.990686773
F		-0.11709957		-1.016387169		-3.211038449
F		0.501555075		0.399671018		-0.034396356
F		1.074293431		-2.073510771		-0.05793177
