12
-185.77729729
Al		0.280993232		-2.326662501		-1.838983091
Al		2.04016539		-0.539569144		-0.819291854
Al		-0.329716945		0.310488015		-1.813887312
F		3.62469699		-0.180128605		-0.030682102
F		-0.167252274		-4.032262883		-2.228657716
F		2.095963496		-1.810202044		-2.28198815
F		1.525662925		0.652452942		-2.258552918
F		-1.483656723		1.652195542		-2.174562991
F		-1.148432623		-1.276353933		-0.990512187
F		-0.11710797		-1.01639164		-3.21077301
F		0.501479457		0.399745191		-0.034152782
F		1.074259131		-2.073615018		-0.057689894
