12
-185.77729729
Al		0.282996794		-2.326157194		-1.843325242
Al		2.042168952		-0.539063837		-0.823634005
Al		-0.327713383		0.310993322		-1.818229463
F		3.62454288		-0.180167468		-0.030348098
F		-0.167406384		-4.032301746		-2.228323712
F		2.094107378		-1.809618593		-2.279808522
F		1.524261316		0.651073762		-2.256391968
F		-1.483810833		1.652156679		-2.174228987
F		-1.150573641		-1.276868029		-0.988591741
F		-0.11720037		-1.016440821		-3.207853181
F		0.500647659		0.400561094		-0.031473468
F		1.073881831		-2.074761735		-0.055029258
