12
-185.77729729
Al		0.283361078		-2.32606532		-1.844114724
Al		2.042533236		-0.538971963		-0.824423487
Al		-0.327349099		0.311085196		-1.819018945
F		3.62451486		-0.180174534		-0.03028737
F		-0.167434404		-4.032308812		-2.228262984
F		2.093769902		-1.809512511		-2.279412226
F		1.524006478		0.650823002		-2.255999068
F		-1.483838853		1.652149613		-2.174168259
F		-1.150962917		-1.276961501		-0.988242569
F		-0.11721717		-1.016449763		-3.207322303
F		0.500496423		0.40070944		-0.03098632
F		1.073813231		-2.074970229		-0.054545506
