12
-185.77729729
Al		0.285000356		-2.325651887		-1.847667393
Al		2.044172514		-0.53855853		-0.827976156
Al		-0.325709821		0.311498629		-1.822571614
F		3.62438877		-0.180206331		-0.030014094
F		-0.167560494		-4.032340609		-2.227989708
F		2.09225126		-1.809035142		-2.277628894
F		1.522859707		0.649694582		-2.254231018
F		-1.483964943		1.652117816		-2.173894983
F		-1.152714659		-1.277382125		-0.986671295
F		-0.11729277		-1.016490002		-3.204933352
F		0.499815861		0.401376997		-0.028794154
F		1.073504531		-2.075908452		-0.052368622
