12
-185.77729729
Al		0.276621824		-2.327764989		-1.829509307
Al		2.035793982		-0.540671632		-0.80981807
Al		-0.334088353		0.309385527		-1.804413528
F		3.62503323		-0.180043813		-0.031410838
F		-0.166916034		-4.032178091		-2.229386452
F		2.100013208		-1.811475028		-2.286743702
F		1.528720981		0.655462062		-2.263267718
F		-1.483320483		1.652280334		-2.175291727
F		-1.143761311		-1.275232269		-0.994702251
F		-0.11690637		-1.016284336		-3.217143546
F		0.503294289		0.397965039		-0.039998558
F		1.075082331		-2.07111309		-0.063494918
