12
-185.77729729
Al		0.287003918		-2.32514658		-1.852009544
Al		2.046176076		-0.538053223		-0.832318307
Al		-0.323706259		0.312003936		-1.826913765
F		3.62423466		-0.180245194		-0.02968009
F		-0.167714604		-4.032379472		-2.227655704
F		2.090395142		-1.808451691		-2.275449266
F		1.521458098		0.648315402		-2.252070068
F		-1.484119053		1.652078953		-2.173560979
F		-1.154855677		-1.277896221		-0.984750849
F		-0.11738517		-1.016539183		-3.202013523
F		0.498984063		0.4021929		-0.02611484
F		1.073127231		-2.077055169		-0.049707986
