12
-185.77729729
Al		0.28718606		-2.325100643		-1.852404285
Al		2.046358218		-0.538007286		-0.832713048
Al		-0.323524117		0.312049873		-1.827308506
F		3.62422065		-0.180248727		-0.029649726
F		-0.167728614		-4.032383005		-2.22762534
F		2.090226404		-1.80839865		-2.275251118
F		1.521330679		0.648190022		-2.251873618
F		-1.484133063		1.65207542		-2.173530615
F		-1.155050315		-1.277942957		-0.984576263
F		-0.11739357		-1.016543654		-3.201748084
F		0.498908445		0.402267073		-0.025871266
F		1.073092931		-2.077159416		-0.04946611
