12
-185.77729729
Al		0.287550344		-2.325008769		-1.853193767
Al		2.046722502		-0.537915412		-0.83350253
Al		-0.323159833		0.312141747		-1.828097988
F		3.62419263		-0.180255793		-0.029588998
F		-0.167756634		-4.032390071		-2.227564612
F		2.089888928		-1.808292568		-2.274854822
F		1.521075841		0.647939262		-2.251480718
F		-1.484161083		1.652068354		-2.173469887
F		-1.155439591		-1.278036429		-0.984227091
F		-0.11741037		-1.016552596		-3.201217206
F		0.498757209		0.402415419		-0.025384118
F		1.073024331		-2.07736791		-0.048982358
