12
-185.77729729
Al		0.287732486		-2.324962832		-1.853588508
Al		2.046904644		-0.537869475		-0.833897271
Al		-0.322977691		0.312187684		-1.828492729
F		3.62417862		-0.180259326		-0.029558634
F		-0.167770644		-4.032393604		-2.227534248
F		2.08972019		-1.808239527		-2.274656674
F		1.520948422		0.647813882		-2.251284268
F		-1.484175093		1.652064821		-2.173439523
F		-1.155634229		-1.278083165		-0.984052505
F		-0.11741877		-1.016557067		-3.200951767
F		0.498681591		0.402489592		-0.025140544
F		1.072990031		-2.077472157		-0.048740482
