12
-185.77729729
Al		0.287914628		-2.324916895		-1.853983249
Al		2.047086786		-0.537823538		-0.834292012
Al		-0.322795549		0.312233621		-1.82888747
F		3.62416461		-0.180262859		-0.02952827
F		-0.167784654		-4.032397137		-2.227503884
F		2.089551452		-1.808186486		-2.274458526
F		1.520821003		0.647688502		-2.251087818
F		-1.484189103		1.652061288		-2.173409159
F		-1.155828867		-1.278129901		-0.983877919
F		-0.11742717		-1.016561538		-3.200686328
F		0.498605973		0.402563765		-0.02489697
F		1.072955731		-2.077576404		-0.048498606
