12
-185.77729729
Al		0.28809677		-2.324870958		-1.85437799
Al		2.047268928		-0.537777601		-0.834686753
Al		-0.322613407		0.312279558		-1.829282211
F		3.6241506		-0.180266392		-0.029497906
F		-0.167798664		-4.03240067		-2.22747352
F		2.089382714		-1.808133445		-2.274260378
F		1.520693584		0.647563122		-2.250891368
F		-1.484203113		1.652057755		-2.173378795
F		-1.156023505		-1.278176637		-0.983703333
F		-0.11743557		-1.016566009		-3.200420889
F		0.498530355		0.402637938		-0.024653396
F		1.072921431		-2.077680651		-0.04825673
