12
-185.77729729
Al		0.276803966		-2.327719052		-1.829904048
Al		2.035976124		-0.540625695		-0.810212811
Al		-0.333906211		0.309431464		-1.804808269
F		3.62501922		-0.180047346		-0.031380474
F		-0.166930044		-4.032181624		-2.229356088
F		2.09984447		-1.811421987		-2.286545554
F		1.528593562		0.655336682		-2.263071268
F		-1.483334493		1.652276801		-2.175261363
F		-1.143955949		-1.275279005		-0.994527665
F		-0.11691477		-1.016288807		-3.216878107
F		0.503218671		0.398039212		-0.039754984
F		1.075048031		-2.071217337		-0.063253042
