12
-185.77729729
Al		0.288825338		-2.32468721		-1.855956954
Al		2.047997496		-0.537593853		-0.836265717
Al		-0.321884839		0.312463306		-1.830861175
F		3.62409456		-0.180280524		-0.02937645
F		-0.167854704		-4.032414802		-2.227352064
F		2.088707762		-1.807921281		-2.273467786
F		1.520183908		0.647061602		-2.250105568
F		-1.484259153		1.652043623		-2.173257339
F		-1.156802057		-1.278363581		-0.983004989
F		-0.11746917		-1.016583893		-3.199359133
F		0.498227883		0.40293463		-0.0236791
F		1.072784231		-2.078097639		-0.047289226
