12
-185.77729729
Al		0.28991819		-2.324411588		-1.8583254
Al		2.049090348		-0.537318231		-0.838634163
Al		-0.320791987		0.312738928		-1.833229621
F		3.6240105		-0.180301722		-0.029194266
F		-0.167938764		-4.032436		-2.22716988
F		2.087695334		-1.807603035		-2.272278898
F		1.519419394		0.646309322		-2.248926868
F		-1.484343213		1.652022425		-2.173075155
F		-1.157969885		-1.278643997		-0.981957473
F		-0.11751957		-1.016610719		-3.197766499
F		0.497774175		0.403379668		-0.022217656
F		1.072578431		-2.078723121		-0.04583797
