12
-185.77729729
Al		0.276986108		-2.327673115		-1.830298789
Al		2.036158266		-0.540579758		-0.810607552
Al		-0.333724069		0.309477401		-1.80520301
F		3.62500521		-0.180050879		-0.03135011
F		-0.166944054		-4.032185157		-2.229325724
F		2.099675732		-1.811368946		-2.286347406
F		1.528466143		0.655211302		-2.262874818
F		-1.483348503		1.652273268		-2.175230999
F		-1.144150587		-1.275325741		-0.994353079
F		-0.11692317		-1.016293278		-3.216612668
F		0.503143053		0.398113385		-0.03951141
F		1.075013731		-2.071321584		-0.063011166
