12
-185.77729729
Al		0.291557468		-2.323998155		-1.861878069
Al		2.050729626		-0.536904798		-0.842186832
Al		-0.319152709		0.313152361		-1.83678229
F		3.62388441		-0.180333519		-0.02892099
F		-0.168064854		-4.032467797		-2.226896604
F		2.086176692		-1.807125666		-2.270495566
F		1.518272623		0.645180902		-2.247158818
F		-1.484469303		1.651990628		-2.172801879
F		-1.159721627		-1.279064621		-0.980386199
F		-0.11759517		-1.016650958		-3.195377548
F		0.497093613		0.404047225		-0.02002549
F		1.072269731		-2.079661344		-0.043661086
