12
-185.77729729
Al		0.292103894		-2.323860344		-1.863062292
Al		2.051276052		-0.536766987		-0.843371055
Al		-0.318606283		0.313290172		-1.837966513
F		3.62384238		-0.180344118		-0.028829898
F		-0.168106884		-4.032478396		-2.226805512
F		2.085670478		-1.806966543		-2.269901122
F		1.517890366		0.644804762		-2.246569468
F		-1.484511333		1.651980029		-2.172710787
F		-1.160305541		-1.279204829		-0.979862441
F		-0.11762037		-1.016664371		-3.194581231
F		0.496866759		0.404269744		-0.019294768
F		1.072166831		-2.079974085		-0.042935458
