12
-185.77729729
Al		0.292468178		-2.32376847		-1.863851774
Al		2.051640336		-0.536675113		-0.844160537
Al		-0.318241999		0.313382046		-1.838755995
F		3.62381436		-0.180351184		-0.02876917
F		-0.168134904		-4.032485462		-2.226744784
F		2.085333002		-1.806860461		-2.269504826
F		1.517635528		0.644554002		-2.246176568
F		-1.484539353		1.651972963		-2.172650059
F		-1.160694817		-1.279298301		-0.979513269
F		-0.11763717		-1.016673313		-3.194050353
F		0.496715523		0.40441809		-0.01880762
F		1.072098231		-2.080182579		-0.042451706
