12
-185.77729729
Al		0.29265032		-2.323722533		-1.864246515
Al		2.051822478		-0.536629176		-0.844555278
Al		-0.318059857		0.313427983		-1.839150736
F		3.62380035		-0.180354717		-0.028738806
F		-0.168148914		-4.032488995		-2.22671442
F		2.085164264		-1.80680742		-2.269306678
F		1.517508109		0.644428622		-2.245980118
F		-1.484553363		1.65196943		-2.172619695
F		-1.160889455		-1.279345037		-0.979338683
F		-0.11764557		-1.016677784		-3.193784914
F		0.496639905		0.404492263		-0.018564046
F		1.072063931		-2.080286826		-0.04220983
