12
-185.77729729
Al		0.292832462		-2.323676596		-1.864641256
Al		2.05200462		-0.536583239		-0.844950019
Al		-0.317877715		0.31347392		-1.839545477
F		3.62378634		-0.18035825		-0.028708442
F		-0.168162924		-4.032492528		-2.226684056
F		2.084995526		-1.806754379		-2.26910853
F		1.51738069		0.644303242		-2.245783668
F		-1.484567373		1.651965897		-2.172589331
F		-1.161084093		-1.279391773		-0.979164097
F		-0.11765397		-1.016682255		-3.193519475
F		0.496564287		0.404566436		-0.018320472
F		1.072029631		-2.080391073		-0.041967954
