12
-185.77729729
Al		0.293378888		-2.323538785		-1.865825479
Al		2.052551046		-0.536445428		-0.846134242
Al		-0.317331289		0.313611731		-1.8407297
F		3.62374431		-0.180368849		-0.02861735
F		-0.168204954		-4.032503127		-2.226592964
F		2.084489312		-1.806595256		-2.268514086
F		1.516998433		0.643927102		-2.245194318
F		-1.484609403		1.651955298		-2.172498239
F		-1.161668007		-1.279531981		-0.978640339
F		-0.11767917		-1.016695668		-3.192723158
F		0.496337433		0.404788955		-0.01758975
F		1.071926731		-2.080703814		-0.041242326
