      12
SCF Done            -170.59500450
Al            0.474329995        -0.481839278         1.702658717
Al            2.302019163        -1.905951454        -0.587027290
Al           -0.968113582        -1.829258340        -0.886378936
F             3.458882911        -0.669429593        -1.287873003
F            -1.888670651        -0.575013689        -1.823635221
F             2.629319187        -3.674055677        -0.471300792
F            -1.361250573        -3.603598985        -0.871108669
F             1.946708996        -1.403916532         1.154258800
F             0.759090164        -1.600154882        -1.493882265
F             0.266699151        -0.973990041         3.452677481
F             0.553577779         1.202753566         1.072174072
F            -0.930874869        -1.353110321         0.865959212
