      12
SCF Done            -186.56215295
Al           -0.364025238         1.033292360        -1.819473136
Al           -0.447876981         1.074315691         1.281664601
Al           -3.019922103         0.458553278        -1.858813209
F            -3.531707055         0.314743336        -3.599727761
F            -1.377200158        -0.562137304        -1.842283738
F            -1.945233093         2.066201389        -1.892412761
F            -2.034258177         0.715717855         0.455725309
F             0.596416416         1.269941297        -0.294771175
F            -0.301816981         2.739125604         1.990847771
F             0.366811208        -0.354683271         2.049851758
F            -4.276743767         0.211305726        -0.580801713
F             0.747012619         1.246431703        -3.233906044
