12
Properties=species:S:1:pos:R:3:forces:R:3 energy=-176.61733848 pbc="F F F"
Al    -0.004436427999999992    -2.078306011    -2.268687661    5.776302    7.185853    -7.621983
Al    2.33076273    -0.494278656    -1.1381894240000001    -1.536436    -0.242934    -11.860774
Al    -0.498194606    -0.038758497    -2.265453883    8.314964    -3.776552    -7.726303
F    3.520003288    -0.203007016    -0.067893823    0.26759    0.051161    1.135742
F    -0.178682974    -4.099016293    -2.2050194359999997    -0.558323    -0.787841    0.657003
F    2.326045238    -1.554448476    -2.061536189    -3.844667    1.901642    3.300058
F    1.839442295    0.540239339    -2.06185342    -2.603647    -3.457266    3.249064
F    -1.516844422    1.701284131    -2.148579711    -0.84504    0.45024    0.668784
F    -1.326126886    -1.319774652    -0.795569969    -3.17463    -0.770485    3.709945
F    -0.070123974    -0.990550309    -2.712264981    0.971119    0.174255    5.321154
F    0.451204596    0.463166398    0.117968198    -1.648516    0.77985    4.594541
F    1.0552991340000002    -2.15619921    0.097343627    -1.118717    -1.507923    4.572769
