      12
SCF Done            -176.61733848
Al            0.421242572        -2.291291011        -2.142933661
Al            2.180414730        -0.504197656        -1.123242424
Al           -0.189467606         0.345859503        -2.117837883
F             3.613909288        -0.182849016        -0.007301823
F            -0.178039974        -4.034983293        -2.205277436
F             1.966035238        -1.769360476        -2.129414189
F             1.427550295         0.555910339        -2.107286420
F            -1.494444422         1.649475131        -2.151182711
F            -1.298303886        -1.312340652        -0.856080969
F            -0.123575974        -1.019834309        -3.006384981
F             0.443253596         0.456858398         0.153399198
F             1.047848134        -2.153885210         0.128554627
