12
Properties=species:S:1:pos:R:3:forces:R:3 energy=-185.06035381 pbc="F F F"
Al    0.267545972    -2.361049611    -1.830936861    0.280189    0.39072    0.338501
Al    2.20990013    -0.475619256    -1.2779496240000001    -0.166074    1.169903    -0.671022
Al    -0.496144206    0.242913903    -1.327205083    0.810219    0.641203    1.273047
F    3.896148288    0.002219383999999991    -0.7533950229999999    0.074094    0.005422    -0.19612
F    -0.162720974    -4.073532893    -2.1858226359999997    -0.012259    -0.003884    0.020785
F    2.331694638    -2.0678792759999998    -2.369467589    0.648196    -0.838366    -0.371809
F    1.271838495    0.761282339    -2.3103374199999998    -0.076805    -0.520996    0.171934
F    -1.731217422    1.572471531    -1.497582911    -0.082455    -0.03812    0.167649
F    -1.484181486    -1.425505852    -1.045135769    -1.296972    -0.548424    0.065989
F    0.129615026    -0.901520509    -3.056601181    0.865612    0.060024    -0.836357
F    0.687389996    0.286072998    0.07259199799999999    -0.268569    -0.473179    -0.483566
F    0.9791271340000001    -1.79287061    -0.164804173    -0.775177    0.155694    0.520971
