12
-186.35103317
Al		-1.811497261		2.40720242		-1.359457291
Al		-0.453254355		-0.002165794		-2.311639374
Al		-2.156991976		-0.348816918		-0.442112837
F		-0.631037541		3.223507636		-0.132318657
F		-3.125022247		2.992131993		-2.448040592
F		-1.42992548		-1.663277027		-1.766478961
F		-2.569086962		1.428549083		0.071900562
F		-3.464114763		-0.857293632		0.824312253
F		0.733730398		-0.003178341		-3.782019504
F		-0.318033925		1.886559914		-2.398200031
F		-2.379069157		0.513037151		-2.227916228
F		-0.227597368		0.022082239		-0.358270408
