12
-186.35103317
Al		-1.645211761		2.63544092		-1.165597291
Al		-0.570411855		0.001830206		-2.365324374
Al		-2.222993476		-0.334412418		-0.551932337
F		-0.820630041		3.916830136		-0.176541657
F		-2.963296747		3.268371993		-2.249436092
F		-1.35095948		-1.680860027		-1.697775961
F		-2.504433962		1.460217083		0.043927062
F		-3.138866763		-1.525977132		0.491447253
F		0.565142398		-0.772340841		-3.572994504
F		-0.344043925		1.899780914		-2.326687531
F		-2.492803657		0.455039651		-2.342319728
F		-0.340155868		0.227157739		-0.422821408
