12
-186.35103317
Al		-1.689554561		2.57457732		-1.217293291
Al		-0.539169855		0.000764606		-2.351008374
Al		-2.205393076		-0.338253618		-0.522647137
F		-0.770072041		3.731944136		-0.164748857
F		-3.006423547		3.194707993		-2.302397292
F		-1.37201708		-1.676171227		-1.716096761
F		-2.521674762		1.451772283		0.051386662
F		-3.225599563		-1.347661532		0.580211253
F		0.610099198		-0.567230841		-3.628734504
F		-0.337107925		1.896255314		-2.345757531
F		-2.462474457		0.470505651		-2.311812128
F		-0.310140268		0.172470939		-0.405607808
