12
-186.35103317
Al		-1.623040361		2.66587272		-1.139749291
Al		-0.586032855		0.002363006		-2.372482374
Al		-2.231793676		-0.332491818		-0.566574937
F		-0.845909041		4.009273136		-0.182438057
F		-2.941733347		3.305203993		-2.222955492
F		-1.34043068		-1.683204427		-1.688615561
F		-2.495813562		1.464439483		0.040197262
F		-3.095500363		-1.615134932		0.447065253
F		0.542663998		-0.874895841		-3.545124504
F		-0.347511925		1.901543714		-2.317152531
F		-2.507968257		0.447306651		-2.357573528
F		-0.355163668		0.254501139		-0.431428208
