12
-186.35103317
Al		-1.634125989		2.650656885		-1.152673206
Al		-0.57822237		0.002096604		-2.368903356
Al		-2.227393586		-0.333452112		-0.559253649
F		-0.83326948		3.963051711		-0.179489773
F		-2.95251497		3.286788066		-2.236195719
F		-1.345695088		-1.682032237		-1.693195754
F		-2.50012368		1.46232831		0.042062185
F		-3.11718373		-1.570555946		0.469256164
F		0.55390309		-0.82361826		-3.5590602
F		-0.345778493		1.900662322		-2.321919922
F		-2.500385957		0.451173151		-2.349946628
F		-0.347659763		0.24082938		-0.427124788
