12
-186.35103317
Al		-1.811497189		2.407202485		-1.359457206
Al		-0.45325437		-0.002165796		-2.311639356
Al		-2.156991986		-0.348816912		-0.442112849
F		-0.63103748		3.223507711		-0.132318573
F		-3.12502217		2.992132066		-2.448040519
F		-1.429925488		-1.663277037		-1.766478954
F		-2.56908688		1.42854911		0.071900585
F		-3.46411493		-0.857293546		0.824312164
F		0.73373029		-0.00317826		-3.7820186
F		-0.318032893		1.886559922		-2.398199922
F		-2.379069157		0.513037151		-2.227916228
F		-0.227597363		0.02208218		-0.358270388
