12
-186.35103317
Al		-1.611954589		2.681088685		-1.126825206
Al		-0.59384337		0.002629404		-2.376061356
Al		-2.236193786		-0.331531512		-0.573896249
F		-0.85854848		4.055494711		-0.185386173
F		-2.93095157		3.323620066		-2.209715119
F		-1.335166288		-1.684376637		-1.684035354
F		-2.49150328		1.46655071		0.038332385
F		-3.07381733		-1.659713746		0.424874164
F		0.53142469		-0.92617326		-3.5311904
F		-0.349246693		1.902425122		-2.312384922
F		-2.515550557		0.443440151		-2.365200428
F		-0.362667563		0.26817278		-0.435731588
