12
-186.35103317
Al		-1.744982989		2.498497885		-1.281913206
Al		-0.50011737		-0.000567396		-2.333113356
Al		-2.183392586		-0.343055112		-0.486040649
F		-0.70687448		3.500836711		-0.150007773
F		-3.06033197		3.102628066		-2.368598719
F		-1.398339088		-1.670310237		-1.738997754
F		-2.54322568		1.44121631		0.060711185
F		-3.33401573		-1.124766946		0.691166164
F		0.66629509		-0.31084326		-3.6984092
F		-0.328437493		1.891848322		-2.369594922
F		-2.424562957		0.489838151		-2.273677628
F		-0.272620763		0.10411238		-0.384090788
