12
-186.35103317
Al		-1.656297389		2.620225085		-1.178521206
Al		-0.56260137		0.001563804		-2.361745356
Al		-2.218593386		-0.335372712		-0.544611049
F		-0.80799048		3.870608711		-0.173593373
F		-2.97407837		3.249956066		-2.262676319
F		-1.356223888		-1.679687837		-1.702356154
F		-2.50874408		1.45810591		0.045791985
F		-3.16055013		-1.481398146		0.513638164
F		0.57638149		-0.72106326		-3.58693
F		-0.342310293		1.898899522		-2.331454922
F		-2.485221357		0.458906151		-2.334692828
F		-0.332651963		0.21348598		-0.418517988
