12
-186.35103317
Al		-1.600868961		2.69630452		-1.113901291
Al		-0.601653855		0.002895806		-2.379640374
Al		-2.240593876		-0.330571218		-0.581217537
F		-0.871188041		4.101716136		-0.188334457
F		-2.920169947		3.342035993		-2.196474892
F		-1.32990188		-1.685548827		-1.679455161
F		-2.487193162		1.468661883		0.036467462
F		-3.052133963		-1.704292732		0.402683253
F		0.520185598		-0.977450841		-3.517254504
F		-0.350979925		1.903306514		-2.307617531
F		-2.523132857		0.439573651		-2.372827328
F		-0.370171468		0.281844539		-0.440035008
