12
-186.35103317
Al		-1.678468789		2.589793285		-1.204369206
Al		-0.54698037		0.001031004		-2.354587356
Al		-2.209793186		-0.337293312		-0.529968449
F		-0.78271148		3.778165711		-0.167696973
F		-2.99564177		3.213124066		-2.289156919
F		-1.366752688		-1.677343437		-1.711516554
F		-2.51736448		1.45388351		0.049521785
F		-3.20391653		-1.392240346		0.558020164
F		0.59885989		-0.61850826		-3.6147998
F		-0.338842093		1.897136722		-2.340989922
F		-2.470056757		0.466639151		-2.319439028
F		-0.317644163		0.18614258		-0.409911188
