12
-186.35103317
Al		-1.811497189		2.407202485		-1.359457206
Al		-0.45325437		-0.002165796		-2.311639356
Al		-2.156991986		-0.348816912		-0.442112849
F		-0.63103748		3.223507711		-0.132318573
F		-3.12502217		2.992132066		-2.448040519
F		-1.429925488		-1.663277037		-1.766478954
F		-2.56908688		1.42854911		0.071900585
F		-3.46411493		-0.857293546		0.824312164
F		0.73373029		-0.00317826		-3.7820186
F		-0.318032893		1.886559922		-2.398199922
F		-2.379069157		0.513037151		-2.227916228
F		-0.227597363		0.02208218		-0.358270388
12
-186.35103317
Al		-1.789325789		2.437634285		-1.333609206
Al		-0.46887537		-0.001632996		-2.318797356
Al		-2.165792186		-0.346896312		-0.456755449
F		-0.65631648		3.315950711		-0.138214973
F		-3.10345877		3.028964066		-2.421559919
F		-1.419396688		-1.665621437		-1.757318554
F		-2.56046648		1.43277151		0.068170785
F		-3.42074853		-0.946451346		0.779930164
F		0.71125189		-0.10573326		-3.7541488
F		-0.321501093		1.888322722		-2.388664922
F		-2.394233757		0.505304151		-2.243170028
F		-0.242605163		0.04942558		-0.366877188
12
-186.35103317
Al		-1.767154389		2.468066085		-1.307761206
Al		-0.48449637		-0.001100196		-2.325955356
Al		-2.174592386		-0.344975712		-0.471398049
F		-0.68159548		3.408393711		-0.144111373
F		-3.08189537		3.065796066		-2.395079319
F		-1.408867888		-1.667965837		-1.748158154
F		-2.55184608		1.43699391		0.064440985
F		-3.37738213		-1.035609146		0.735548164
F		0.68877349		-0.20828826		-3.726279
F		-0.324969293		1.890085522		-2.379129922
F		-2.409398357		0.497571151		-2.258423828
F		-0.257612963		0.07676898		-0.375483988
12
-186.35103317
Al		-1.744982989		2.498497885		-1.281913206
Al		-0.50011737		-0.000567396		-2.333113356
Al		-2.183392586		-0.343055112		-0.486040649
F		-0.70687448		3.500836711		-0.150007773
F		-3.06033197		3.102628066		-2.368598719
F		-1.398339088		-1.670310237		-1.738997754
F		-2.54322568		1.44121631		0.060711185
F		-3.33401573		-1.124766946		0.691166164
F		0.66629509		-0.31084326		-3.6984092
F		-0.328437493		1.891848322		-2.369594922
F		-2.424562957		0.489838151		-2.273677628
F		-0.272620763		0.10411238		-0.384090788
12
-186.35103317
Al		-1.722811589		2.528929685		-1.256065206
Al		-0.51573837		-3.4596e-05		-2.340271356
Al		-2.192192786		-0.341134512		-0.500683249
F		-0.73215348		3.593279711		-0.155904173
F		-3.03876857		3.139460066		-2.342118119
F		-1.387810288		-1.672654637		-1.729837354
F		-2.53460528		1.44543871		0.056981385
F		-3.29064933		-1.213924746		0.646784164
F		0.64381669		-0.41339826		-3.6705394
F		-0.331905693		1.893611122		-2.360059922
F		-2.439727557		0.482105151		-2.288931428
F		-0.287628563		0.13145578		-0.392697588
12
-186.35103317
Al		-1.700640189		2.559361485		-1.230217206
Al		-0.53135937		0.000498204		-2.347429356
Al		-2.200992986		-0.339213912		-0.515325849
F		-0.75743248		3.685722711		-0.161800573
F		-3.01720517		3.176292066		-2.315637519
F		-1.377281488		-1.674999037		-1.720676954
F		-2.52598488		1.44966111		0.053251585
F		-3.24728293		-1.303082546		0.602402164
F		0.62133829		-0.51595326		-3.6426696
F		-0.335373893		1.895373922		-2.350524922
F		-2.454892157		0.474372151		-2.304185228
F		-0.302636363		0.15879918		-0.401304388
12
-186.35103317
Al		-1.678468789		2.589793285		-1.204369206
Al		-0.54698037		0.001031004		-2.354587356
Al		-2.209793186		-0.337293312		-0.529968449
F		-0.78271148		3.778165711		-0.167696973
F		-2.99564177		3.213124066		-2.289156919
F		-1.366752688		-1.677343437		-1.711516554
F		-2.51736448		1.45388351		0.049521785
F		-3.20391653		-1.392240346		0.558020164
F		0.59885989		-0.61850826		-3.6147998
F		-0.338842093		1.897136722		-2.340989922
F		-2.470056757		0.466639151		-2.319439028
F		-0.317644163		0.18614258		-0.409911188
12
-186.35103317
Al		-1.656297389		2.620225085		-1.178521206
Al		-0.56260137		0.001563804		-2.361745356
Al		-2.218593386		-0.335372712		-0.544611049
F		-0.80799048		3.870608711		-0.173593373
F		-2.97407837		3.249956066		-2.262676319
F		-1.356223888		-1.679687837		-1.702356154
F		-2.50874408		1.45810591		0.045791985
F		-3.16055013		-1.481398146		0.513638164
F		0.57638149		-0.72106326		-3.58693
F		-0.342310293		1.898899522		-2.331454922
F		-2.485221357		0.458906151		-2.334692828
F		-0.332651963		0.21348598		-0.418517988
12
-186.35103317
Al		-1.634125989		2.650656885		-1.152673206
Al		-0.57822237		0.002096604		-2.368903356
Al		-2.227393586		-0.333452112		-0.559253649
F		-0.83326948		3.963051711		-0.179489773
F		-2.95251497		3.286788066		-2.236195719
F		-1.345695088		-1.682032237		-1.693195754
F		-2.50012368		1.46232831		0.042062185
F		-3.11718373		-1.570555946		0.469256164
F		0.55390309		-0.82361826		-3.5590602
F		-0.345778493		1.900662322		-2.321919922
F		-2.500385957		0.451173151		-2.349946628
F		-0.347659763		0.24082938		-0.427124788
12
-186.35103317
Al		-1.611954589		2.681088685		-1.126825206
Al		-0.59384337		0.002629404		-2.376061356
Al		-2.236193786		-0.331531512		-0.573896249
F		-0.85854848		4.055494711		-0.185386173
F		-2.93095157		3.323620066		-2.209715119
F		-1.335166288		-1.684376637		-1.684035354
F		-2.49150328		1.46655071		0.038332385
F		-3.07381733		-1.659713746		0.424874164
F		0.53142469		-0.92617326		-3.5311904
F		-0.349246693		1.902425122		-2.312384922
F		-2.515550557		0.443440151		-2.365200428
F		-0.362667563		0.26817278		-0.435731588
