12
-187.24475565
Al		0.349764424		-0.599313316		1.740433709
Al		2.350431079		-1.788682393		-0.519343445
Al		-0.892921302		-1.830460596		-0.992082002
F		3.475923534		-0.496073449		-1.112568172
F		-1.834803508		-0.564798291		-1.886735027
F		2.736513126		-3.562343813		-0.491623372
F		-1.226549496		-3.613244321		-1.069546371
F		1.896897609		-1.414950721		1.210986392
F		0.831791322		-1.508493124		-1.48927641
F		0.109241302		-1.172357209		3.443316291
F		0.406505204		1.135159187		1.198623067
F		-0.960869908		-1.451704852		0.794383447
