12
-187.24475565
Al		0.363350095		-0.599138878		1.742412917
Al		2.343274963		-1.782597754		-0.50844899
Al		-0.896516982		-1.83668334		-1.004542736
F		3.452641011		-0.470596393		-1.091676103
F		-1.850510551		-0.590776089		-1.913307221
F		2.704411287		-3.562555277		-0.467742592
F		-1.250499873		-3.613752785		-1.101592869
F		1.914481296		-1.412118232		1.2273206
F		0.829925964		-1.508517082		-1.489548165
F		0.141866851		-1.171938241		3.448069281
F		0.428248079		1.135438466		1.201790572
F		-0.939291769		-1.454034421		0.783754312
