12
-187.24475565
Al		0.351136714		-0.599295696		1.740633629
Al		2.349708239		-1.788067783		-0.518242995
Al		-0.893284502		-1.831089156		-0.993340662
F		3.473571764		-0.493500009		-1.110457862
F		-1.836390078		-0.567422311		-1.889419087
F		2.733270516		-3.562365173		-0.489211172
F		-1.228968726		-3.613295681		-1.072783391
F		1.898673739		-1.414664611		1.212636312
F		0.831602902		-1.508495544		-1.48930386
F		0.112536812		-1.172314889		3.443796391
F		0.408701454		1.135187397		1.198943017
F		-0.958690298		-1.451940162		0.793309797
