12
-187.24475565
Al		0.352097317		-0.599283362		1.740773573
Al		2.349202251		-1.787637556		-0.51747268
Al		-0.893538742		-1.831529148		-0.994221724
F		3.471925525		-0.491698601		-1.108980645
F		-1.837500677		-0.569259125		-1.891297929
F		2.731000689		-3.562380125		-0.487522632
F		-1.230662187		-3.613331633		-1.075049305
F		1.89991703		-1.414464334		1.213791256
F		0.831471008		-1.508497238		-1.489323075
F		0.114843669		-1.172285265		3.444132461
F		0.410238829		1.135207144		1.199166982
F		-0.957164571		-1.452104879		0.792558242
