12
-187.24475565
Al		0.353469607		-0.599265742		1.740973493
Al		2.348479411		-1.787022946		-0.51637223
Al		-0.893901942		-1.832157708		-0.995480384
F		3.469573755		-0.489125161		-1.106870335
F		-1.839087247		-0.571883145		-1.893981989
F		2.727758079		-3.562401485		-0.485110432
F		-1.233081417		-3.613382993		-1.078286325
F		1.90169316		-1.414178224		1.215441176
F		0.831282588		-1.508499658		-1.489350525
F		0.118139179		-1.172242945		3.444612561
F		0.412435079		1.135235354		1.199486932
F		-0.954984961		-1.452340189		0.791484592
