12
-187.24475565
Al		0.354018523		-0.599258694		1.741053461
Al		2.348190275		-1.786777102		-0.51593205
Al		-0.894047222		-1.832409132		-0.995983848
F		3.468633047		-0.488095785		-1.106026211
F		-1.839721875		-0.572932753		-1.895055613
F		2.726461035		-3.562410029		-0.484145552
F		-1.234049109		-3.613403537		-1.079581133
F		1.902403612		-1.41406378		1.216101144
F		0.83120722		-1.508500626		-1.489361505
F		0.119457383		-1.172226017		3.444804601
F		0.413313579		1.135246638		1.199614912
F		-0.954113117		-1.452434313		0.791055132
