12
-187.24475565
Al		0.35443021		-0.599253408		1.741113437
Al		2.347973423		-1.786592719		-0.515601915
Al		-0.894156182		-1.8325977		-0.996361446
F		3.467927516		-0.487323753		-1.105393118
F		-1.840197846		-0.573719959		-1.895860831
F		2.725488252		-3.562416437		-0.483421892
F		-1.234774878		-3.613418945		-1.080552239
F		1.902936451		-1.413977947		1.21659612
F		0.831150694		-1.508501352		-1.48936974
F		0.120446036		-1.172213321		3.444948631
F		0.413972454		1.135255101		1.199710897
F		-0.953459234		-1.452504906		0.790733037
