12
-187.24475565
Al		0.355528042		-0.599239312		1.741273373
Al		2.347395151		-1.786101031		-0.514721555
Al		-0.894446742		-1.833100548		-0.997368374
F		3.4660461		-0.485265001		-1.10370487
F		-1.841467102		-0.575819175		-1.898008079
F		2.722894164		-3.562433525		-0.481492132
F		-1.236710262		-3.613460033		-1.083141855
F		1.904357355		-1.413749059		1.217916056
F		0.830999958		-1.508503288		-1.4893917
F		0.123082444		-1.172179465		3.445332711
F		0.415729454		1.135277669		1.199966857
F		-0.951715546		-1.452693154		0.789874117
