12
-187.24475565
Al		0.3558025		-0.599235788		1.741313357
Al		2.347250583		-1.785978109		-0.514501465
Al		-0.894519382		-1.83322626		-0.997620106
F		3.465575746		-0.484750313		-1.103282808
F		-1.841784416		-0.576343979		-1.898544891
F		2.722245642		-3.562437797		-0.481009692
F		-1.237194108		-3.613470305		-1.083789259
F		1.904712581		-1.413691837		1.21824604
F		0.830962274		-1.508503772		-1.48939719
F		0.123741546		-1.172171001		3.445428731
F		0.416168704		1.135283311		1.200030847
F		-0.951279624		-1.452740216		0.789659387
