12
-187.24475565
Al		0.355939729		-0.599234026		1.741333349
Al		2.347178299		-1.785916648		-0.51439142
Al		-0.894555702		-1.833289116		-0.997745972
F		3.465340569		-0.484492969		-1.103071777
F		-1.841943073		-0.576606381		-1.898813297
F		2.721921381		-3.562439933		-0.480768472
F		-1.237436031		-3.613475441		-1.084112961
F		1.904890194		-1.413663226		1.218411032
F		0.830943432		-1.508504014		-1.489399935
F		0.124071097		-1.172166769		3.445476741
F		0.416388329		1.135286132		1.200062842
F		-0.951061663		-1.452763747		0.789552022
