12
-187.24475565
Al		0.356351416		-0.59922874		1.741393325
Al		2.346961447		-1.785732265		-0.514061285
Al		-0.894664662		-1.833477684		-0.99812357
F		3.464635038		-0.483720937		-1.102438684
F		-1.842419044		-0.577393587		-1.899618515
F		2.720948598		-3.562446341		-0.480044812
F		-1.2381618		-3.613490849		-1.085084067
F		1.905423033		-1.413577393		1.218906008
F		0.830886906		-1.50850474		-1.48940817
F		0.12505975		-1.172154073		3.445620771
F		0.417047204		1.135294595		1.200158827
F		-0.95040778		-1.45283434		0.789229927
