12
-187.24475565
Al		0.356763103		-0.599223454		1.741453301
Al		2.346744595		-1.785547882		-0.51373115
Al		-0.894773622		-1.833666252		-0.998501168
F		3.463929507		-0.482948905		-1.101805591
F		-1.842895015		-0.578180793		-1.900423733
F		2.719975815		-3.562452749		-0.479321152
F		-1.238887569		-3.613506257		-1.086055173
F		1.905955872		-1.41349156		1.219400984
F		0.83083038		-1.508505466		-1.489416405
F		0.126048403		-1.172141377		3.445764801
F		0.417706079		1.135303058		1.200254812
F		-0.949753897		-1.452904933		0.788907832
