12
-187.24475565
Al		0.357312019		-0.599216406		1.741533269
Al		2.346455459		-1.785302038		-0.51329097
Al		-0.894918902		-1.833917676		-0.999004632
F		3.462988799		-0.481919529		-1.100961467
F		-1.843529643		-0.579230401		-1.901497357
F		2.718678771		-3.562461293		-0.478356272
F		-1.239855261		-3.613526801		-1.087349981
F		1.906666324		-1.413377116		1.220060952
F		0.830755012		-1.508506434		-1.489427385
F		0.127366607		-1.172124449		3.445956841
F		0.418584579		1.135314342		1.200382792
F		-0.948882053		-1.452999057		0.788478372
