12
-187.24475565
Al		0.357586477		-0.599212882		1.741573253
Al		2.346310891		-1.785179116		-0.51307088
Al		-0.894991542		-1.834043388		-0.999256364
F		3.462518445		-0.481404841		-1.100539405
F		-1.843846957		-0.579755205		-1.902034169
F		2.718030249		-3.562465565		-0.477873832
F		-1.240339107		-3.613537073		-1.087997385
F		1.90702155		-1.413319894		1.220390936
F		0.830717328		-1.508506918		-1.489432875
F		0.128025709		-1.172115985		3.446052861
F		0.419023829		1.135319984		1.200446782
F		-0.948446131		-1.453046119		0.788263642
