12
-187.24475565
Al		0.357998164		-0.599207596		1.741633229
Al		2.346094039		-1.784994733		-0.512740745
Al		-0.895100502		-1.834231956		-0.999633962
F		3.461812914		-0.480632809		-1.099906312
F		-1.844322928		-0.580542411		-1.902839387
F		2.717057466		-3.562471973		-0.477150172
F		-1.241064876		-3.613552481		-1.088968491
F		1.907554389		-1.413234061		1.220885912
F		0.830660802		-1.508507644		-1.48944111
F		0.129014362		-1.172103289		3.446196891
F		0.419682704		1.135328447		1.200542767
F		-0.947792248		-1.453116712		0.787941547
