12
-187.24475565
Al		0.358958767		-0.599195262		1.741773173
Al		2.345588051		-1.784564506		-0.51197043
Al		-0.895354742		-1.834671948		-1.000515024
F		3.460166675		-0.478831401		-1.098429095
F		-1.845433527		-0.582379225		-1.904718229
F		2.714787639		-3.562486925		-0.475461632
F		-1.242758337		-3.613588433		-1.091234405
F		1.90879768		-1.413033784		1.222040856
F		0.830528908		-1.508509338		-1.489460325
F		0.131321219		-1.172073665		3.446532961
F		0.421220079		1.135348194		1.200766732
F		-0.946266521		-1.453281429		0.787189992
