12
-187.24475565
Al		0.359370454		-0.599189976		1.741833149
Al		2.345371199		-1.784380123		-0.511640295
Al		-0.895463702		-1.834860516		-1.000892622
F		3.459461144		-0.478059369		-1.097796002
F		-1.845909498		-0.583166431		-1.905523447
F		2.713814856		-3.562493333		-0.474737972
F		-1.243484106		-3.613603841		-1.092205511
F		1.909330519		-1.412947951		1.222535832
F		0.830472382		-1.508510064		-1.48946856
F		0.132309872		-1.172060969		3.446676991
F		0.421878954		1.135356657		1.200862717
F		-0.945612638		-1.453352022		0.786867897
