12
-187.24475565
Al		0.359782141		-0.59918469		1.741893125
Al		2.345154347		-1.78419574		-0.51131016
Al		-0.895572662		-1.835049084		-1.00127022
F		3.458755613		-0.477287337		-1.097162909
F		-1.846385469		-0.583953637		-1.906328665
F		2.712842073		-3.562499741		-0.474014312
F		-1.244209875		-3.613619249		-1.093176617
F		1.909863358		-1.412862118		1.223030808
F		0.830415856		-1.50851079		-1.489476795
F		0.133298525		-1.172048273		3.446821021
F		0.422537829		1.13536512		1.200958702
F		-0.944958755		-1.453422615		0.786545802
