12
-187.24475565
Al		0.360193828		-0.599179404		1.741953101
Al		2.344937495		-1.784011357		-0.510980025
Al		-0.895681622		-1.835237652		-1.001647818
F		3.458050082		-0.476515305		-1.096529816
F		-1.84686144		-0.584740843		-1.907133883
F		2.71186929		-3.562506149		-0.473290652
F		-1.244935644		-3.613634657		-1.094147723
F		1.910396197		-1.412776285		1.223525784
F		0.83035933		-1.508511516		-1.48948503
F		0.134287178		-1.172035577		3.446965051
F		0.423196704		1.135373583		1.201054687
F		-0.944304872		-1.453493208		0.786223707
