12
-187.24475565
Al		0.350725027		-0.599300982		1.740573653
Al		2.349925091		-1.788252166		-0.51857313
Al		-0.893175542		-1.830900588		-0.992963064
F		3.474277295		-0.494272041		-1.111090955
F		-1.835914107		-0.566635105		-1.888613869
F		2.734243299		-3.562358765		-0.489934832
F		-1.228242957		-3.613280273		-1.071812285
F		1.8981409		-1.414750444		1.212141336
F		0.831659428		-1.508494818		-1.489295625
F		0.111548159		-1.172327585		3.443652361
F		0.408042579		1.135178934		1.198847032
F		-0.959344181		-1.451869569		0.793631892
