12
-187.24475565
Al		0.361703347		-0.599160022		1.742173013
Al		2.344142371		-1.783335286		-0.50976953
Al		-0.896081142		-1.835929068		-1.003032344
F		3.455463135		-0.473684521		-1.094208475
F		-1.848606667		-0.587627265		-1.910086349
F		2.708302419		-3.562529645		-0.470637232
F		-1.247596797		-3.613691153		-1.097708445
F		1.91234994		-1.412461564		1.225340696
F		0.830152068		-1.508514178		-1.489515225
F		0.137912239		-1.171989025		3.447493161
F		0.425612579		1.135404614		1.201406632
F		-0.941907301		-1.453752049		0.785042692
