12
-187.24475565
Al		0.361840576		-0.59915826		1.742193005
Al		2.344070087		-1.783273825		-0.509659485
Al		-0.896117462		-1.835991924		-1.00315821
F		3.455227958		-0.473427177		-1.093997444
F		-1.848765324		-0.587889667		-1.910354755
F		2.707978158		-3.562531781		-0.470396012
F		-1.24783872		-3.613696289		-1.098032147
F		1.912527553		-1.412432953		1.225505688
F		0.830133226		-1.50851442		-1.48951797
F		0.13824179		-1.171984793		3.447541171
F		0.425832204		1.135407435		1.201438627
F		-0.94168934		-1.45377558		0.784935327
