12
-187.24475565
Al		0.362389492		-0.599151212		1.742272973
Al		2.343780951		-1.783027981		-0.509219305
Al		-0.896262742		-1.836243348		-1.003661674
F		3.45428725		-0.472397801		-1.09315332
F		-1.849399952		-0.588939275		-1.911428379
F		2.706681114		-3.562540325		-0.469431132
F		-1.248806412		-3.613716833		-1.099326955
F		1.913238005		-1.412318509		1.226165656
F		0.830057858		-1.508515388		-1.48952895
F		0.139559994		-1.171967865		3.447733211
F		0.426710704		1.135418719		1.201566607
F		-0.940817496		-1.453869704		0.784505867
