12
-187.24475565
Al		0.362526721		-0.59914945		1.742292965
Al		2.343708667		-1.78296652		-0.50910926
Al		-0.896299062		-1.836306204		-1.00378754
F		3.454052073		-0.472140457		-1.092942289
F		-1.849558609		-0.589201677		-1.911696785
F		2.706356853		-3.562542461		-0.469189912
F		-1.249048335		-3.613721969		-1.099650657
F		1.913415618		-1.412289898		1.226330648
F		0.830039016		-1.50851563		-1.489531695
F		0.139889545		-1.171963633		3.447781221
F		0.426930329		1.13542154		1.201598602
F		-0.940599535		-1.453893235		0.784398502
