12
-187.24475565
Al		0.362801179		-0.599145926		1.742332949
Al		2.343564099		-1.782843598		-0.50888917
Al		-0.896371702		-1.836431916		-1.004039272
F		3.453581719		-0.471625769		-1.092520227
F		-1.849875923		-0.589726481		-1.912233597
F		2.705708331		-3.562546733		-0.468707472
F		-1.249532181		-3.613732241		-1.100298061
F		1.913770844		-1.412232676		1.226660632
F		0.830001332		-1.508516114		-1.489537185
F		0.140548647		-1.171955169		3.447877241
F		0.427369579		1.135427182		1.201662592
F		-0.940163613		-1.453940297		0.784183772
