12
-187.24475565
Al		0.362938408		-0.599144164		1.742352941
Al		2.343491815		-1.782782137		-0.508779125
Al		-0.896408022		-1.836494772		-1.004165138
F		3.453346542		-0.471368425		-1.092309196
F		-1.85003458		-0.589988883		-1.912502003
F		2.70538407		-3.562548869		-0.468466252
F		-1.249774104		-3.613737377		-1.100621763
F		1.913948457		-1.412204065		1.226825624
F		0.82998249		-1.508516356		-1.48953993
F		0.140878198		-1.171950937		3.447925251
F		0.427589204		1.135430003		1.201694587
F		-0.939945652		-1.453963828		0.784076407
