12
-187.24475565
Al		0.347431531		-0.59934327		1.740093845
Al		2.351659907		-1.78972723		-0.52121421
Al		-0.892303862		-1.829392044		-0.98994228
F		3.479921543		-0.500448297		-1.116155699
F		-1.832106339		-0.560337457		-1.882172125
F		2.742025563		-3.562307501		-0.495724112
F		-1.222436805		-3.613157009		-1.064043437
F		1.893878188		-1.415437108		1.208181528
F		0.832111636		-1.50848901		-1.489229745
F		0.103638935		-1.172429153		3.442500121
F		0.402771579		1.13511123		1.198079152
F		-0.964575245		-1.451304825		0.796208652
