12
-187.24475565
Al		0.347157073		-0.599346794		1.740053861
Al		2.351804475		-1.789850152		-0.5214343
Al		-0.892231222		-1.829266332		-0.989690548
F		3.480391897		-0.500962985		-1.116577761
F		-1.831789025		-0.559812653		-1.881635313
F		2.742674085		-3.562303229		-0.496206552
F		-1.221952959		-3.613146737		-1.063396033
F		1.893522962		-1.41549433		1.207851544
F		0.83214932		-1.508488526		-1.489224255
F		0.102979833		-1.172437617		3.442404101
F		0.402332329		1.135105588		1.198015162
F		-0.965011167		-1.451257763		0.796423382
