12
-187.24475565
Al		0.346470928		-0.599355604		1.739953901
Al		2.352165895		-1.790157457		-0.521984525
Al		-0.892049622		-1.828952052		-0.989061218
F		3.481567782		-0.502249705		-1.117632916
F		-1.83099574		-0.558500643		-1.880293283
F		2.74429539		-3.562292549		-0.497412652
F		-1.220743344		-3.613121057		-1.061777523
F		1.892634897		-1.415637385		1.207026584
F		0.83224353		-1.508487316		-1.48921053
F		0.101332078		-1.172458777		3.442164051
F		0.401234204		1.135091483		1.197855187
F		-0.966100972		-1.451140108		0.796960207
