12
-187.24475565
Al		0.346333699		-0.599357366		1.739933909
Al		2.352238179		-1.790218918		-0.52209457
Al		-0.892013302		-1.828889196		-0.988935352
F		3.481802959		-0.502507049		-1.117843947
F		-1.830837083		-0.558238241		-1.880024877
F		2.744619651		-3.562290413		-0.497653872
F		-1.220501421		-3.613115921		-1.061453821
F		1.892457284		-1.415665996		1.206861592
F		0.832262372		-1.508487074		-1.489207785
F		0.101002527		-1.172463009		3.442116041
F		0.401014579		1.135088662		1.197823192
F		-0.966318933		-1.451116577		0.797067572
