12
-187.24475565
Al		0.345373096		-0.5993697		1.739793965
Al		2.352744167		-1.790649145		-0.522864885
Al		-0.891759062		-1.828449204		-0.98805429
F		3.483449198		-0.504308457		-1.119321164
F		-1.829726484		-0.556401427		-1.878146035
F		2.746889478		-3.562275461		-0.499342412
F		-1.21880796		-3.613079969		-1.059187907
F		1.891213993		-1.415866273		1.205706648
F		0.832394266		-1.50848538		-1.48918857
F		0.09869567		-1.172492633		3.441779971
F		0.399477204		1.135068915		1.197599227
F		-0.96784466		-1.45095186		0.797819127
