12
-187.24475565
Al		0.34482418		-0.599376748		1.739713997
Al		2.353033303		-1.790894989		-0.523305065
Al		-0.891613782		-1.82819778		-0.987550826
F		3.484389906		-0.505337833		-1.120165288
F		-1.829091856		-0.555351819		-1.877072411
F		2.748186522		-3.562266917		-0.500307292
F		-1.217840268		-3.613059425		-1.057893099
F		1.890503541		-1.415980717		1.20504668
F		0.832469634		-1.508484412		-1.48917759
F		0.097377466		-1.172509561		3.441587931
F		0.398598704		1.135057631		1.197471247
F		-0.968716504		-1.450857736		0.798248587
