12
-187.24475565
Al		0.344686951		-0.59937851		1.739694005
Al		2.353105587		-1.79095645		-0.52341511
Al		-0.891577462		-1.828134924		-0.98742496
F		3.484625083		-0.505595177		-1.120376319
F		-1.828933199		-0.555089417		-1.876804005
F		2.748510783		-3.562264781		-0.500548512
F		-1.217598345		-3.613054289		-1.057569397
F		1.890325928		-1.416009328		1.204881688
F		0.832488476		-1.50848417		-1.489174845
F		0.097047915		-1.172513793		3.441539921
F		0.398379079		1.13505481		1.197439252
F		-0.968934465		-1.450834205		0.798355952
