12
-187.24475565
Al		0.343040203		-0.599399654		1.739454101
Al		2.353972995		-1.791693982		-0.52473565
Al		-0.891141622		-1.827380652		-0.985914568
F		3.487447207		-0.508683305		-1.122908691
F		-1.827029315		-0.551940593		-1.873583133
F		2.752401915		-3.562239149		-0.503443152
F		-1.214695269		-3.612992657		-1.053684973
F		1.888194572		-1.41635266		1.202901784
F		0.83271458		-1.508481266		-1.489141905
F		0.093093303		-1.172564577		3.440963801
F		0.395743579		1.135020958		1.197055312
F		-0.971549997		-1.450551833		0.799644332
