12
-187.24475565
Al		0.34894105		-0.599323888		1.740313757
Al		2.350864783		-1.789051159		-0.520003715
Al		-0.892703382		-1.83008346		-0.991326806
F		3.477334596		-0.497617513		-1.113834358
F		-1.833851566		-0.563223879		-1.885124591
F		2.738458692		-3.562330997		-0.493070692
F		-1.225097958		-3.613213505		-1.067604159
F		1.895831931		-1.415122387		1.20999644
F		0.831904374		-1.508491672		-1.48925994
F		0.107263996		-1.172382601		3.443028231
F		0.405187454		1.135142261		1.198431097
F		-0.962177674		-1.451563666		0.795027637
