12
-187.24475565
Al		0.342765745		-0.599403178		1.739414117
Al		2.354117563		-1.791816904		-0.52495574
Al		-0.891068982		-1.82725494		-0.985662836
F		3.487917561		-0.509197993		-1.123330753
F		-1.826712001		-0.551415789		-1.873046321
F		2.753050437		-3.562234877		-0.503925592
F		-1.214211423		-3.612982385		-1.053037569
F		1.887839346		-1.416409882		1.2025718
F		0.832752264		-1.508480782		-1.489136415
F		0.092434201		-1.172573041		3.440867781
F		0.395304329		1.135015316		1.196991322
F		-0.971985919		-1.450504771		0.799859062
