12
-187.24475565
Al		0.342491287		-0.599406702		1.739374133
Al		2.354262131		-1.791939826		-0.52517583
Al		-0.890996342		-1.827129228		-0.985411104
F		3.488387915		-0.509712681		-1.123752815
F		-1.826394687		-0.550890985		-1.872509509
F		2.753698959		-3.562230605		-0.504408032
F		-1.213727577		-3.612972113		-1.052390165
F		1.88748412		-1.416467104		1.202241816
F		0.832789948		-1.508480298		-1.489130925
F		0.091775099		-1.172581505		3.440771761
F		0.394865079		1.135009674		1.196927332
F		-0.972421841		-1.450457709		0.800073792
