12
-187.24475565
Al		0.342354058		-0.599408464		1.739354141
Al		2.354334415		-1.792001287		-0.525285875
Al		-0.890960022		-1.827066372		-0.985285238
F		3.488623092		-0.509970025		-1.123963846
F		-1.82623603		-0.550628583		-1.872241103
F		2.75402322		-3.562228469		-0.504649252
F		-1.213485654		-3.612966977		-1.052066463
F		1.887306507		-1.416495715		1.202076824
F		0.83280879		-1.508480056		-1.48912818
F		0.091445548		-1.172585737		3.440723751
F		0.394645454		1.135006853		1.196895337
F		-0.972639802		-1.450434178		0.800181157
