12
-187.24475565
Al		0.341667913		-0.599417274		1.739254181
Al		2.354695835		-1.792308592		-0.5258361
Al		-0.890778422		-1.826752092		-0.984655908
F		3.489798977		-0.511256745		-1.125019001
F		-1.825442745		-0.549316573		-1.870899073
F		2.755644525		-3.562217789		-0.505855352
F		-1.212276039		-3.612941297		-1.050447953
F		1.886418442		-1.41663877		1.201251864
F		0.832903		-1.508478846		-1.489114455
F		0.089797793		-1.172606897		3.440483701
F		0.393547329		1.134992748		1.196735362
F		-0.973729607		-1.450316523		0.800717982
