12
-187.24475565
Al		0.341530684		-0.599419036		1.739234189
Al		2.354768119		-1.792370053		-0.525946145
Al		-0.890742102		-1.826689236		-0.984530042
F		3.490034154		-0.511514089		-1.125230032
F		-1.825284088		-0.549054171		-1.870630667
F		2.755968786		-3.562215653		-0.506096572
F		-1.212034116		-3.612936161		-1.050124251
F		1.886240829		-1.416667381		1.201086872
F		0.832921842		-1.508478604		-1.48911171
F		0.089468242		-1.172611129		3.440435691
F		0.393327704		1.134989927		1.196703367
F		-0.973947568		-1.450292992		0.800825347
