12
-187.24475565
Al		0.348803821		-0.59932565		1.740293765
Al		2.350937067		-1.78911262		-0.52011376
Al		-0.892667062		-1.830020604		-0.99120094
F		3.477569773		-0.497874857		-1.114045389
F		-1.833692909		-0.562961477		-1.884856185
F		2.738782953		-3.562328861		-0.493311912
F		-1.224856035		-3.613208369		-1.067280457
F		1.895654318		-1.415150998		1.209831448
F		0.831923216		-1.50849143		-1.489257195
F		0.106934445		-1.172386833		3.442980221
F		0.404967829		1.13513944		1.198399102
F		-0.962395635		-1.451540135		0.795135002
