12
-187.24475565
Al		0.340432852		-0.599433132		1.739074253
Al		2.355346391		-1.792861741		-0.526826505
Al		-0.890451542		-1.826186388		-0.983523114
F		3.49191557		-0.513572841		-1.12691828
F		-1.824014832		-0.546954955		-1.868483419
F		2.758562874		-3.562198565		-0.508026332
F		-1.210098732		-3.612895073		-1.047534635
F		1.884819925		-1.416896269		1.199766936
F		0.833072578		-1.508476668		-1.48908975
F		0.086831834		-1.172644985		3.440051611
F		0.391570704		1.134967359		1.196447407
F		-0.975691256		-1.450104744		0.801684267
