12
-187.24475565
Al		0.348666592		-0.599327412		1.740273773
Al		2.351009351		-1.789174081		-0.520223805
Al		-0.892630742		-1.829957748		-0.991075074
F		3.47780495		-0.498132201		-1.11425642
F		-1.833534252		-0.562699075		-1.884587779
F		2.739107214		-3.562326725		-0.493553132
F		-1.224614112		-3.613203233		-1.066956755
F		1.895476705		-1.415179609		1.209666456
F		0.831942058		-1.508491188		-1.48925445
F		0.106604894		-1.172391065		3.442932211
F		0.404748204		1.135136619		1.198367107
F		-0.962613596		-1.451516604		0.795242367
