12
-187.24475565
Al		0.339746707		-0.599441942		1.738974293
Al		2.355707811		-1.793169046		-0.52737673
Al		-0.890269942		-1.825872108		-0.982893784
F		3.493091455		-0.514859561		-1.127973435
F		-1.823221547		-0.545642945		-1.867141389
F		2.760184179		-3.562187885		-0.509232432
F		-1.208889117		-3.612869393		-1.045916125
F		1.88393186		-1.417039324		1.198941976
F		0.833166788		-1.508475458		-1.489076025
F		0.085184079		-1.172666145		3.439811561
F		0.390472579		1.134953254		1.196287432
F		-0.976781061		-1.449987089		0.802221092
