12
-187.24475565
Al		0.348529363		-0.599329174		1.740253781
Al		2.351081635		-1.789235542		-0.52033385
Al		-0.892594422		-1.829894892		-0.990949208
F		3.478040127		-0.498389545		-1.114467451
F		-1.833375595		-0.562436673		-1.884319373
F		2.739431475		-3.562324589		-0.493794352
F		-1.224372189		-3.613198097		-1.066633053
F		1.895299092		-1.41520822		1.209501464
F		0.8319609		-1.508490946		-1.489251705
F		0.106275343		-1.172395297		3.442884201
F		0.404528579		1.135133798		1.198335112
F		-0.962831557		-1.451493073		0.795349732
