12
-187.24475565
Al		0.338374417		-0.599459562		1.738774373
Al		2.356430651		-1.793783656		-0.52847718
Al		-0.889906742		-1.825243548		-0.981635124
F		3.495443225		-0.517433001		-1.130083745
F		-1.821634977		-0.543018925		-1.864457329
F		2.763426789		-3.562166525		-0.511644632
F		-1.206469887		-3.612818033		-1.042679105
F		1.88215573		-1.417325434		1.197292056
F		0.833355208		-1.508473038		-1.489048575
F		0.081888569		-1.172708465		3.439331461
F		0.388276329		1.134925044		1.195967482
F		-0.978960671		-1.449751779		0.803294742
