12
-187.24475565
Al		0.338237188		-0.599461324		1.738754381
Al		2.356502935		-1.793845117		-0.528587225
Al		-0.889870422		-1.825180692		-0.981509258
F		3.495678402		-0.517690345		-1.130294776
F		-1.82147632		-0.542756523		-1.864188923
F		2.76375105		-3.562164389		-0.511885852
F		-1.206227964		-3.612812897		-1.042355403
F		1.881978117		-1.417354045		1.197127064
F		0.83337405		-1.508472796		-1.48904583
F		0.081559018		-1.172712697		3.439283451
F		0.388056704		1.134922223		1.195935487
F		-0.979178632		-1.449728248		0.803402107
