12
-187.24475565
Al		0.348392134		-0.599330936		1.740233789
Al		2.351153919		-1.789297003		-0.520443895
Al		-0.892558102		-1.829832036		-0.990823342
F		3.478275304		-0.498646889		-1.114678482
F		-1.833216938		-0.562174271		-1.884050967
F		2.739755736		-3.562322453		-0.494035572
F		-1.224130266		-3.613192961		-1.066309351
F		1.895121479		-1.415236831		1.209336472
F		0.831979742		-1.508490704		-1.48924896
F		0.105945792		-1.172399529		3.442836191
F		0.404308954		1.135130977		1.198303117
F		-0.963049518		-1.451469542		0.795457097
