12
-186.39349496
Al		-0.078492513		1.640921192		2.15545999
Al		2.526553286		2.601794275		1.768186845
Al		1.360497714		2.661914614		-0.647717844
F		1.000996378		3.093487526		2.835654803
F		-1.576927553		2.683852342		2.176249126
F		-0.493239111		-0.026255116		2.75270394
F		1.810649363		0.873007643		1.933559355
F		2.962674305		1.858498183		-0.073457996
F		1.087397899		3.035179783		-2.396370212
F		1.747225194		4.018341407		0.633136917
F		4.109075968		3.125137747		2.45889161
F		-0.010298961		1.8008652		0.212206573
