12
-186.39349496
Al		-0.078612893		1.640951116		2.155504464
Al		2.526791924		2.600725725		1.768679899
Al		1.36092652		2.66140462		-0.647853882
F		1.000950578		3.093587724		2.835679991
F		-1.576649487		2.683674906		2.176238714
F		-0.493264639		-0.026227286		2.752695482
F		1.810897765		0.873950453		1.933464773
F		2.962193697		1.858808249		-0.073595512
F		1.087357117		3.035253553		-2.396529092
F		1.747115254		4.018996371		0.633153647
F		4.108719368		3.125071781		2.458727696
F		-0.010418075		1.800844358		0.212259989
