12
-186.39349496
Al		-0.078853653		1.641010964		2.155593412
Al		2.5272692		2.598588625		1.769666007
Al		1.361784132		2.660384632		-0.648125958
F		1.000858978		3.09378812		2.835730367
F		-1.576093355		2.683320034		2.17621789
F		-0.493315695		-0.026171626		2.752678566
F		1.811394569		0.875836073		1.933275609
F		2.961232481		1.859428381		-0.073870544
F		1.087275553		3.035401093		-2.396846852
F		1.746895374		4.020306299		0.633187107
F		4.108006168		3.124939849		2.458399868
F		-0.010656303		1.800802674		0.212366821
