12
-186.39349496
Al		-0.079034223		1.64105585		2.155660123
Al		2.527627157		2.5969858		1.770405588
Al		1.362427341		2.659619641		-0.648330015
F		1.000790278		3.093938417		2.835768149
F		-1.575676256		2.68305388		2.176202272
F		-0.493353987		-0.026129881		2.752665879
F		1.811767172		0.877250288		1.933133736
F		2.960511569		1.85989348		-0.074076818
F		1.08721438		3.035511748		-2.397085172
F		1.746730464		4.021288745		0.633212202
F		4.107471268		3.1248409		2.458153997
F		-0.010834974		1.800771411		0.212446945
