12
-186.39349496
Al		-0.079575933		1.641190508		2.155860256
Al		2.528701028		2.592177325		1.772624331
Al		1.364356968		2.657324668		-0.648942186
F		1.000584178		3.094389308		2.835881495
F		-1.574424959		2.682255418		2.176155418
F		-0.493468863		-0.026004646		2.752627818
F		1.812884981		0.881492933		1.932708117
F		2.958348833		1.861288777		-0.07469564
F		1.087030861		3.035843713		-2.397800132
F		1.746235734		4.024236083		0.633287487
F		4.105866568		3.124544053		2.457416384
F		-0.011370987		1.800677622		0.212687317
