12
-186.39349496
Al		-0.079636123		1.64120547		2.155882493
Al		2.528820347		2.59164305		1.772870858
Al		1.364571371		2.657069671		-0.649010205
F		1.000561278		3.094439407		2.835894089
F		-1.574285926		2.6821667		2.176150212
F		-0.493481627		-0.025990731		2.752623589
F		1.813009182		0.881964338		1.932660826
F		2.958108529		1.86144381		-0.074764398
F		1.08701047		3.035880598		-2.397879572
F		1.746180764		4.024563565		0.633295852
F		4.105688268		3.12451107		2.457334427
F		-0.011430544		1.800667201		0.212714025
