12
-186.39349496
Al		-0.080177833		1.641340128		2.156082626
Al		2.529894218		2.586834575		1.775089601
Al		1.366500998		2.654774698		-0.649622376
F		1.000355178		3.094890298		2.836007435
F		-1.573034629		2.681368238		2.176103358
F		-0.493596503		-0.025865496		2.752585528
F		1.814126991		0.886206983		1.932235207
F		2.955945793		1.862839107		-0.07538322
F		1.086826951		3.036212563		-2.398594532
F		1.745686034		4.027510903		0.633371137
F		4.104083568		3.124214223		2.456596814
F		-0.011966557		1.800573412		0.212954397
