12
-186.39349496
Al		-0.080358403		1.641385014		2.156149337
Al		2.530252175		2.58523175		1.775829182
Al		1.367144207		2.654009707		-0.649826433
F		1.000286478		3.095040595		2.836045217
F		-1.57261753		2.681102084		2.17608774
F		-0.493634795		-0.025823751		2.752572841
F		1.814499594		0.887621198		1.932093334
F		2.955224881		1.863304206		-0.075589494
F		1.086765778		3.036323218		-2.398832852
F		1.745521124		4.028493349		0.633396232
F		4.103548668		3.124115274		2.456350943
F		-0.012145228		1.800542149		0.213034521
