12
-186.39349496
Al		-0.080659353		1.641459824		2.156260522
Al		2.53084877		2.582560375		1.777061817
Al		1.368216222		2.652734722		-0.650166528
F		1.000171978		3.09529109		2.836108187
F		-1.571922365		2.680658494		2.17606171
F		-0.493698615		-0.025754176		2.752551696
F		1.815120599		0.889978223		1.931856879
F		2.954023361		1.864079371		-0.075933284
F		1.086663823		3.036507643		-2.399230052
F		1.745246274		4.030130759		0.633438057
F		4.102657168		3.123950359		2.455941158
F		-0.012443013		1.800490044		0.213168061
