12
-186.39349496
Al		-0.080779733		1.641489748		2.156304996
Al		2.531087408		2.581491825		1.777554871
Al		1.368645028		2.652224728		-0.650302566
F		1.000126178		3.095391288		2.836133375
F		-1.571644299		2.680481058		2.176051298
F		-0.493724143		-0.025726346		2.752543238
F		1.815369001		0.890921033		1.931762297
F		2.953542753		1.864389437		-0.0760708
F		1.086623041		3.036581413		-2.399388932
F		1.745136334		4.030785723		0.633454787
F		4.102300568		3.123884393		2.455777244
F		-0.012562127		1.800469202		0.213221477
