12
-186.39349496
Al		-0.080839923		1.64150471		2.156327233
Al		2.531206727		2.58095755		1.777801398
Al		1.368859431		2.651969731		-0.650370585
F		1.000103278		3.095441387		2.836145969
F		-1.571505266		2.68039234		2.176046092
F		-0.493736907		-0.025712431		2.752539009
F		1.815493202		0.891392438		1.931715006
F		2.953302449		1.86454447		-0.076139558
F		1.08660265		3.036618298		-2.399468372
F		1.745081364		4.031113205		0.633463152
F		4.102122268		3.12385141		2.455695287
F		-0.012621684		1.800458781		0.213248185
