12
-186.39349496
Al		-0.080960303		1.641534634		2.156371707
Al		2.531445365		2.579889		1.778294452
Al		1.369288237		2.651459737		-0.650506623
F		1.000057478		3.095541585		2.836171157
F		-1.5712272		2.680214904		2.17603568
F		-0.493762435		-0.025684601		2.752530551
F		1.815741604		0.892335248		1.931620424
F		2.952821841		1.864854536		-0.076277074
F		1.086561868		3.036692068		-2.399627252
F		1.744971424		4.031768169		0.633479882
F		4.101765668		3.123785444		2.455531373
F		-0.012740798		1.800437939		0.213301601
