12
-186.39349496
Al		-0.081080683		1.641564558		2.156416181
Al		2.531684003		2.57882045		1.778787506
Al		1.369717043		2.650949743		-0.650642661
F		1.000011678		3.095641783		2.836196345
F		-1.570949134		2.680037468		2.176025268
F		-0.493787963		-0.025656771		2.752522093
F		1.815990006		0.893278058		1.931525842
F		2.952341233		1.865164602		-0.07641459
F		1.086521086		3.036765838		-2.399786132
F		1.744861484		4.032423133		0.633496612
F		4.101409068		3.123719478		2.455367459
F		-0.012859912		1.800417097		0.213355017
