12
-186.39349496
Al		-0.081201063		1.641594482		2.156460655
Al		2.531922641		2.5777519		1.77928056
Al		1.370145849		2.650439749		-0.650778699
F		0.999965878		3.095741981		2.836221533
F		-1.570671068		2.679860032		2.176014856
F		-0.493813491		-0.025628941		2.752513635
F		1.816238408		0.894220868		1.93143126
F		2.951860625		1.865474668		-0.076552106
F		1.086480304		3.036839608		-2.399945012
F		1.744751544		4.033078097		0.633513342
F		4.101052468		3.123653512		2.455203545
F		-0.012979026		1.800396255		0.213408433
