12
-186.39349496
Al		-0.081562203		1.641684254		2.156594077
Al		2.532638555		2.57454625		1.780759722
Al		1.371432267		2.648909767		-0.651186813
F		0.999828478		3.096042575		2.836297097
F		-1.56983687		2.679327724		2.17598362
F		-0.493890075		-0.025545451		2.752488261
F		1.816983614		0.897049298		1.931147514
F		2.950418801		1.866404866		-0.076964654
F		1.086357958		3.037060918		-2.400421652
F		1.744421724		4.035042989		0.633563532
F		4.099982668		3.123455614		2.454711803
F		-0.013336368		1.800333729		0.213568681
