12
-186.39349496
Al		-0.081863153		1.641759064		2.156705262
Al		2.53323515		2.571874875		1.781992357
Al		1.372504282		2.647634782		-0.651526908
F		0.999713978		3.09629307		2.836360067
F		-1.569141705		2.678884134		2.17595759
F		-0.493953895		-0.025475876		2.752467116
F		1.817604619		0.899406323		1.930911059
F		2.949217281		1.867180031		-0.077308444
F		1.086256003		3.037245343		-2.400818852
F		1.744146874		4.036680399		0.633605357
F		4.099091168		3.123290699		2.454302018
F		-0.013634153		1.800281624		0.213702221
