12
-186.39349496
Al		-0.082043723		1.64180395		2.156771973
Al		2.533593107		2.57027205		1.782731938
Al		1.373147491		2.646869791		-0.651730965
F		0.999645278		3.096443367		2.836397849
F		-1.568724606		2.67861798		2.175941972
F		-0.493992187		-0.025434131		2.752454429
F		1.817977222		0.900820538		1.930769186
F		2.948496369		1.86764513		-0.077514718
F		1.08619483		3.037355998		-2.401057172
F		1.743981964		4.037662845		0.633630452
F		4.098556268		3.12319175		2.454056147
F		-0.013812824		1.800250361		0.213782345
