12
-186.39349496
Al		-0.082103913		1.641818912		2.15679421
Al		2.533712426		2.569737775		1.782978465
Al		1.373361894		2.646614794		-0.651798984
F		0.999622378		3.096493466		2.836410443
F		-1.568585573		2.678529262		2.175936766
F		-0.494004951		-0.025420216		2.7524502
F		1.818101423		0.901291943		1.930721895
F		2.948256065		1.867800163		-0.077583476
F		1.086174439		3.037392883		-2.401136612
F		1.743926994		4.037990327		0.633638817
F		4.098377968		3.123158767		2.45397419
F		-0.013872381		1.80023994		0.213809053
