12
-186.39349496
Al		-0.082224293		1.641848836		2.156838684
Al		2.533951064		2.568669225		1.783471519
Al		1.3737907		2.6461048		-0.651935022
F		0.999576578		3.096593664		2.836435631
F		-1.568307507		2.678351826		2.175926354
F		-0.494030479		-0.025392386		2.752441742
F		1.818349825		0.902234753		1.930627313
F		2.947775457		1.868110229		-0.077720992
F		1.086133657		3.037466653		-2.401295492
F		1.743817054		4.038645291		0.633655547
F		4.098021368		3.123092801		2.453810276
F		-0.013991495		1.800219098		0.213862469
