12
-186.39349496
Al		-0.082284483		1.641863798		2.156860921
Al		2.534070383		2.56813495		1.783718046
Al		1.374005103		2.645849803		-0.652003041
F		0.999553678		3.096643763		2.836448225
F		-1.568168474		2.678263108		2.175921148
F		-0.494043243		-0.025378471		2.752437513
F		1.818474026		0.902706158		1.930580022
F		2.947535153		1.868265262		-0.07778975
F		1.086113266		3.037503538		-2.401374932
F		1.743762084		4.038972773		0.633663912
F		4.097843068		3.123059818		2.453728319
F		-0.014051052		1.800208677		0.213889177
