12
-186.39349496
Al		-0.082344673		1.64187876		2.156883158
Al		2.534189702		2.567600675		1.783964573
Al		1.374219506		2.645594806		-0.65207106
F		0.999530778		3.096693862		2.836460819
F		-1.568029441		2.67817439		2.175915942
F		-0.494056007		-0.025364556		2.752433284
F		1.818598227		0.903177563		1.930532731
F		2.947294849		1.868420295		-0.077858508
F		1.086092875		3.037540423		-2.401454372
F		1.743707114		4.039300255		0.633672277
F		4.097664768		3.123026835		2.453646362
F		-0.014110609		1.800198256		0.213915885
