12
-186.39349496
Al		-0.082465053		1.641908684		2.156927632
Al		2.53442834		2.566532125		1.784457627
Al		1.374648312		2.645084812		-0.652207098
F		0.999484978		3.09679406		2.836486007
F		-1.567751375		2.677996954		2.17590553
F		-0.494081535		-0.025336726		2.752424826
F		1.818846629		0.904120373		1.930438149
F		2.946814241		1.868730361		-0.077996024
F		1.086052093		3.037614193		-2.401613252
F		1.743597174		4.039955219		0.633689007
F		4.097308168		3.122960869		2.453482448
F		-0.014229723		1.800177414		0.213969301
