12
-186.39349496
Al		-0.082525243		1.641923646		2.156949869
Al		2.534547659		2.56599785		1.784704154
Al		1.374862715		2.644829815		-0.652275117
F		0.999462078		3.096844159		2.836498601
F		-1.567612342		2.677908236		2.175900324
F		-0.494094299		-0.025322811		2.752420597
F		1.81897083		0.904591778		1.930390858
F		2.946573937		1.868885394		-0.078064782
F		1.086031702		3.037651078		-2.401692692
F		1.743542204		4.040282701		0.633697372
F		4.097129868		3.122927886		2.453400491
F		-0.01428928		1.800166993		0.213996009
