12
-186.39349496
Al		-0.082766003		1.641983494		2.157038817
Al		2.535024935		2.56386075		1.785690262
Al		1.375720327		2.643809827		-0.652547193
F		0.999370478		3.097044555		2.836548977
F		-1.56705621		2.677553364		2.1758795
F		-0.494145355		-0.025267151		2.752403681
F		1.819467634		0.906477398		1.930201694
F		2.945612721		1.869505526		-0.078339814
F		1.085950138		3.037798618		-2.402010452
F		1.743322324		4.041592629		0.633730832
F		4.096416668		3.122795954		2.453072663
F		-0.014527508		1.800125309		0.214102841
