12
-186.39349496
Al		-0.083187333		1.642088228		2.157194476
Al		2.535860168		2.560120825		1.787415951
Al		1.377221148		2.642024848		-0.653023326
F		0.999210178		3.097395248		2.836637135
F		-1.566082979		2.676932338		2.175843058
F		-0.494234703		-0.025169746		2.752374078
F		1.820337041		0.909777233		1.929870657
F		2.943930593		1.870590757		-0.07882112
F		1.085807401		3.038056813		-2.402566532
F		1.742937534		4.043885003		0.633789387
F		4.095168568		3.122565073		2.452498964
F		-0.014944407		1.800052362		0.214289797
