12
-186.39349496
Al		-0.083247523		1.64210319		2.157216713
Al		2.535979487		2.55958655		1.787662478
Al		1.377435551		2.641769851		-0.653091345
F		0.999187278		3.097445347		2.836649729
F		-1.565943946		2.67684362		2.175837852
F		-0.494247467		-0.025155831		2.752369849
F		1.820461242		0.910248638		1.929823366
F		2.943690289		1.87074579		-0.078889878
F		1.08578701		3.038093698		-2.402645972
F		1.742882564		4.044212485		0.633797752
F		4.094990268		3.12253209		2.452417007
F		-0.015003964		1.800041941		0.214316505
