12
-186.39349496
Al		-0.078432323		1.64090623		2.155437753
Al		2.526433967		2.60232855		1.767940318
Al		1.360283311		2.662169611		-0.647649825
F		1.001019278		3.093437427		2.835642209
F		-1.577066586		2.68394106		2.176254332
F		-0.493226347		-0.026269031		2.752708169
F		1.810525162		0.872536238		1.933606646
F		2.962914609		1.85834315		-0.073389238
F		1.08741829		3.035142898		-2.396290772
F		1.747280164		4.018013925		0.633128552
F		4.109254268		3.12517073		2.458973567
F		-0.010239404		1.800875621		0.212179865
