12
-186.39349496
Al		-0.083488283		1.642163038		2.157305661
Al		2.536456763		2.55744945		1.788648586
Al		1.378293163		2.640749863		-0.653363421
F		0.999095678		3.097645743		2.836700105
F		-1.565387814		2.676488748		2.175817028
F		-0.494298523		-0.025100171		2.752352933
F		1.820958046		0.912134258		1.929634202
F		2.942729073		1.871365922		-0.07916491
F		1.085705446		3.038241238		-2.402963732
F		1.742662684		4.045522413		0.633831212
F		4.094277068		3.122400158		2.452089179
F		-0.015242192		1.800000257		0.214423337
