12
-186.39349496
Al		-0.083668853		1.642207924		2.157372372
Al		2.53681472		2.555846625		1.789388167
Al		1.378936372		2.639984872		-0.653567478
F		0.999026978		3.09779604		2.836737887
F		-1.564970715		2.676222594		2.17580141
F		-0.494336815		-0.025058426		2.752340246
F		1.821330649		0.913548473		1.929492329
F		2.942008161		1.871831021		-0.079371184
F		1.085644273		3.038351893		-2.403202052
F		1.742497774		4.046504859		0.633856307
F		4.093742168		3.122301209		2.451843308
F		-0.015420863		1.799968994		0.214503461
