12
-186.39349496
Al		-0.083849423		1.64225281		2.157439083
Al		2.537172677		2.5542438		1.790127748
Al		1.379579581		2.639219881		-0.653771535
F		0.998958278		3.097946337		2.836775669
F		-1.564553616		2.67595644		2.175785792
F		-0.494375107		-0.025016681		2.752327559
F		1.821703252		0.914962688		1.929350456
F		2.941287249		1.87229612		-0.079577458
F		1.0855831		3.038462548		-2.403440372
F		1.742332864		4.047487305		0.633881402
F		4.093207268		3.12220226		2.451597437
F		-0.015599534		1.799937731		0.214583585
