12
-186.39349496
Al		-0.077108143		1.640577066		2.154948539
Al		2.523808949		2.6140826		1.762516724
Al		1.355566445		2.667779545		-0.646153407
F		1.001523078		3.092335249		2.835365141
F		-1.580125312		2.685892856		2.176368864
F		-0.492945539		-0.026575161		2.752801207
F		1.80779274		0.862165328		1.934647048
F		2.968201297		1.854932424		-0.071876562
F		1.087866892		3.034331428		-2.394543092
F		1.748489504		4.010809321		0.632944522
F		4.113176868		3.125896356		2.460776621
F		-0.00892915		1.801104883		0.211592289
