12
-186.39349496
Al		-0.076927573		1.64053218		2.154881828
Al		2.523450992		2.615685425		1.761777143
Al		1.354923236		2.668544536		-0.64594935
F		1.001591778		3.092184952		2.835327359
F		-1.580542411		2.68615901		2.176384482
F		-0.492907247		-0.026616906		2.752813894
F		1.807420137		0.860751113		1.934788921
F		2.968922209		1.854467325		-0.071670288
F		1.087928065		3.034220773		-2.394304772
F		1.748654414		4.009826875		0.632919427
F		4.113711768		3.125995305		2.461022492
F		-0.008750479		1.801136146		0.211512165
