12
-186.39349496
Al		-0.076867383		1.640517218		2.154859591
Al		2.523331673		2.6162197		1.761530616
Al		1.354708833		2.668799533		-0.645881331
F		1.001614678		3.092134853		2.835314765
F		-1.580681444		2.686247728		2.176389688
F		-0.492894483		-0.026630821		2.752818123
F		1.807295936		0.860279708		1.934836212
F		2.969162513		1.854312292		-0.07160153
F		1.087948456		3.034183888		-2.394225332
F		1.748709384		4.009499393		0.632911062
F		4.113890068		3.126028288		2.461104449
F		-0.008690922		1.801146567		0.211485457
