12
-186.39349496
Al		-0.077770233		1.640741648		2.155193146
Al		2.525121458		2.608205575		1.765228521
Al		1.357924878		2.664974578		-0.646901616
F		1.001271178		3.092886338		2.835503675
F		-1.578595949		2.684916958		2.176311598
F		-0.493085943		-0.026422096		2.752754688
F		1.809158951		0.867350783		1.934126847
F		2.965557953		1.856637787		-0.0726329
F		1.087642591		3.034737163		-2.395416932
F		1.747884834		4.014411623		0.633036537
F		4.111215568		3.125533543		2.459875094
F		-0.009584277		1.800990252		0.211886077
