12
-186.39349496
Al		-0.076686813		1.640472332		2.15479288
Al		2.522973716		2.617822525		1.760791035
Al		1.354065624		2.669564524		-0.645677274
F		1.001683378		3.091984556		2.835276983
F		-1.581098543		2.686513882		2.176405306
F		-0.492856191		-0.026672566		2.75283081
F		1.806923333		0.858865493		1.934978085
F		2.969883425		1.853847193		-0.071395256
F		1.088009629		3.034073233		-2.393987012
F		1.748874294		4.008516947		0.632885967
F		4.114424968		3.126127237		2.46135032
F		-0.008512251		1.80117783		0.211405333
