12
-186.39349496
Al		-0.076446053		1.640412484		2.154703932
Al		2.52249644		2.619959625		1.759804927
Al		1.353208012		2.670584512		-0.645405198
F		1.001774978		3.09178416		2.835226607
F		-1.581654675		2.686868754		2.17642613
F		-0.492805135		-0.026728226		2.752847726
F		1.806426529		0.856979873		1.935167249
F		2.970844641		1.853227061		-0.071120224
F		1.088091193		3.033925693		-2.393669252
F		1.749094174		4.007207019		0.632852507
F		4.115138168		3.126259169		2.461678148
F		-0.008274023		1.801219514		0.211298501
