12
-186.39349496
Al		-0.076205293		1.640352636		2.154614984
Al		2.522019164		2.622096725		1.758818819
Al		1.3523504		2.6716045		-0.645133122
F		1.001866578		3.091583764		2.835176231
F		-1.582210807		2.687223626		2.176446954
F		-0.492754079		-0.026783886		2.752864642
F		1.805929725		0.855094253		1.935356413
F		2.971805857		1.852606929		-0.070845192
F		1.088172757		3.033778153		-2.393351492
F		1.749314054		4.005897091		0.632819047
F		4.115851368		3.126391101		2.462005976
F		-0.008035795		1.801261198		0.211191669
