12
-186.39349496
Al		-0.075904343		1.640277826		2.154503799
Al		2.521422569		2.6247681		1.757586184
Al		1.351278385		2.672879485		-0.644793027
F		1.001981078		3.091333269		2.835113261
F		-1.582905972		2.687667216		2.176472984
F		-0.492690259		-0.026853461		2.752885787
F		1.80530872		0.852737228		1.935592868
F		2.973007377		1.851831764		-0.070501402
F		1.088274712		3.033593728		-2.392954292
F		1.749588904		4.004259681		0.632777222
F		4.116742868		3.126556016		2.462415761
F		-0.00773801		1.801313303		0.211058129
