12
-186.39349496
Al		-0.075723773		1.64023294		2.154437088
Al		2.521064612		2.626370925		1.756846603
Al		1.350635176		2.673644476		-0.64458897
F		1.002049778		3.091182972		2.835075479
F		-1.583323071		2.68793337		2.176488602
F		-0.492651967		-0.026895206		2.752898474
F		1.804936117		0.851323013		1.935734741
F		2.973728289		1.851366665		-0.070295128
F		1.088335885		3.033483073		-2.392715972
F		1.749753814		4.003277235		0.632752127
F		4.117277768		3.126654965		2.462661632
F		-0.007559339		1.801344566		0.210978005
