12
-186.39349496
Al		-0.075121873		1.64008332		2.154214718
Al		2.519871422		2.631713675		1.754381333
Al		1.348491146		2.676194446		-0.64390878
F		1.002278778		3.090681982		2.834949539
F		-1.584713401		2.68882055		2.176540662
F		-0.492524327		-0.027034356		2.752940764
F		1.803694107		0.846608963		1.936207651
F		2.976131329		1.849816335		-0.069607548
F		1.088539795		3.033114223		-2.391921572
F		1.750303514		4.000002415		0.632668477
F		4.119060768		3.126984795		2.463481202
F		-0.006963769		1.801448776		0.210710925
