12
-186.39349496
Al		-0.074640353		1.639963624		2.154036822
Al		2.51891687		2.635987875		1.752409117
Al		1.346775922		2.678234422		-0.643364628
F		1.002461978		3.09028119		2.834848787
F		-1.585825665		2.689530294		2.17658231
F		-0.492422215		-0.027145676		2.752974596
F		1.802700499		0.842837723		1.936585979
F		2.978053761		1.848576071		-0.069057484
F		1.088702923		3.032819143		-2.391286052
F		1.750743274		3.997382559		0.632601557
F		4.120487168		3.127248659		2.464136858
F		-0.006487313		1.801532144		0.210497261
