12
-186.39349496
Al		-0.073797693		1.639754156		2.153725504
Al		2.517246404		2.643467725		1.748957739
Al		1.34377428		2.68180438		-0.642412362
F		1.002782578		3.089579804		2.834672471
F		-1.587772127		2.690772346		2.176655194
F		-0.492243519		-0.027340486		2.753033802
F		1.800961685		0.836238053		1.937248053
F		2.981418017		1.846405609		-0.068094872
F		1.088988397		3.032302753		-2.390173892
F		1.751512854		3.992797811		0.632484447
F		4.122983368		3.127710421		2.465284256
F		-0.005653515		1.801678038		0.210123349
