12
-186.39349496
Al		-0.077469283		1.640666838		2.155081961
Al		2.524524863		2.61087695		1.763995886
Al		1.356852863		2.666249563		-0.646561521
F		1.001385678		3.092635843		2.835440705
F		-1.579291114		2.685360548		2.176337628
F		-0.493022123		-0.026491671		2.752775833
F		1.808537946		0.864993758		1.934363302
F		2.966759473		1.855862622		-0.07228911
F		1.087744546		3.034552738		-2.395019732
F		1.748159684		4.012774213		0.632994712
F		4.112107068		3.125698458		2.460284879
F		-0.009286492		1.801042357		0.211752537
