12
-186.39349496
Al		-0.073677313		1.639724232		2.15368103
Al		2.517007766		2.644536275		1.748464685
Al		1.343345474		2.682314374		-0.642276324
F		1.002828378		3.089479606		2.834647283
F		-1.588050193		2.690949782		2.176665606
F		-0.492217991		-0.027368316		2.75304226
F		1.800713283		0.835295243		1.937342635
F		2.981898625		1.846095543		-0.067957356
F		1.089029179		3.032228983		-2.390015012
F		1.751622794		3.992142847		0.632467717
F		4.123339968		3.127776387		2.46544817
F		-0.005534401		1.80169888		0.210069933
