12
-186.39349496
Al		-0.073376363		1.639649422		2.153569845
Al		2.516411171		2.64720765		1.74723205
Al		1.342273459		2.683589359		-0.641936229
F		1.002942878		3.089229111		2.834584313
F		-1.588745358		2.691393372		2.176691636
F		-0.492154171		-0.027437891		2.753063405
F		1.800092278		0.832938218		1.93757909
F		2.983100145		1.845320378		-0.067613566
F		1.089131134		3.032044558		-2.389617812
F		1.751897644		3.990505437		0.632425892
F		4.124231468		3.127941302		2.465857955
F		-0.005236616		1.801750985		0.209936393
