12
-186.39349496
Al		-0.073015223		1.63955965		2.153436423
Al		2.515695257		2.6504133		1.745752888
Al		1.340987041		2.685119341		-0.641528115
F		1.003080278		3.088928517		2.834508749
F		-1.589579556		2.69192568		2.176722872
F		-0.492077587		-0.027521381		2.753088779
F		1.799347072		0.830109788		1.937862836
F		2.984541969		1.84439018		-0.067201018
F		1.08925348		3.031823248		-2.389141172
F		1.752227464		3.988540545		0.632375702
F		4.125301268		3.1281392		2.466349697
F		-0.004879274		1.801813511		0.209776145
