12
-186.39349496
Al		-0.072533703		1.639439954		2.153258527
Al		2.514740705		2.6546875		1.743780672
Al		1.339271817		2.687159317		-0.640983963
F		1.003263478		3.088527725		2.834407997
F		-1.59069182		2.692635424		2.17676452
F		-0.491975475		-0.027632701		2.753122611
F		1.798353464		0.826338548		1.938241164
F		2.986464401		1.843149916		-0.066650954
F		1.089416608		3.031528168		-2.388505652
F		1.752667224		3.985920689		0.632308782
F		4.126727668		3.128403064		2.467005353
F		-0.004402818		1.801896879		0.209562481
