12
-186.39349496
Al		-0.077348903		1.640636914		2.155037487
Al		2.524286225		2.6119455		1.763502832
Al		1.356424057		2.666759557		-0.646425483
F		1.001431478		3.092535645		2.835415517
F		-1.57956918		2.685537984		2.17634804
F		-0.492996595		-0.026519501		2.752784291
F		1.808289544		0.864050948		1.934457884
F		2.967240081		1.855552556		-0.072151594
F		1.087785328		3.034478968		-2.394860852
F		1.748269624		4.012119249		0.632977982
F		4.112463668		3.125764424		2.460448793
F		-0.009167378		1.801063199		0.211699121
