12
-186.39349496
Al		-0.072473513		1.639424992		2.15323629
Al		2.514621386		2.655221775		1.743534145
Al		1.339057414		2.687414314		-0.640915944
F		1.003286378		3.088477626		2.834395403
F		-1.590830853		2.692724142		2.176769726
F		-0.491962711		-0.027646616		2.75312684
F		1.798229263		0.825867143		1.938288455
F		2.986704705		1.842994883		-0.066582196
F		1.089436999		3.031491283		-2.388426212
F		1.752722194		3.985593207		0.632300417
F		4.126905968		3.128436047		2.46708731
F		-0.004343261		1.8019073		0.209535773
