12
-186.39349496
Al		-0.071931803		1.639290334		2.153036157
Al		2.513547515		2.66003025		1.741315402
Al		1.337127787		2.689709287		-0.640303773
F		1.003492478		3.088026735		2.834282057
F		-1.59208215		2.693522604		2.17681658
F		-0.491847835		-0.027771851		2.753164901
F		1.797111454		0.821624498		1.938714074
F		2.988867441		1.841599586		-0.065963374
F		1.089620518		3.031159318		-2.387711252
F		1.753216924		3.982645869		0.632225132
F		4.128510668		3.128732894		2.467824923
F		-0.003807248		1.802001089		0.209295401
