12
Properties=species:S:1:pos:R:3:forces:R:3 energy=-186.19404757 pbc="F F F"
Al    -2.1179662610000003    2.65852372    -0.8159739910000001    -1.586962    -0.702756    1.872073
Al    -0.517603655    0.104419906    -2.3589957740000003    -0.152997    -0.510555    0.149959
Al    -2.2768948759999996    -0.17193711800000003    -0.44593433700000007    -0.15809    0.484147    0.156028
F    -0.9691786410000001    3.427185936    -0.400511957    0.072662    0.044939    -0.046985
F    -2.706706347    3.021725393    -2.058481492    0.034215    0.030756    -0.08489
F    -1.37505788    -1.839405527    -1.753952261    0.100541    0.025685    -0.103611
F    -2.296939362    1.772412383    -0.308677938    0.636856    0.715662    -0.997419
F    -3.2847489629999997    -1.367476132    0.642627953    0.002538    -0.043778    -0.000722
F    0.658000298    -0.520139741    -3.682428604    -0.00177    0.069691    0.005452
F    -0.194753825    1.770536214    -2.469681431    0.761357    -0.147962    -0.621989
F    -2.4202162570000003    0.475786051    -2.348803728    0.135435    0.011396    -0.163837
F    -0.235791768    0.16422583899999998    -0.423771708    0.156218    0.022776    -0.164056
