12
Properties=species:S:1:pos:R:3:forces:R:3 energy=-187.24277852 pbc="F F F"
Al    1.1801506800000001    0.084564317    2.374342073    -0.388269    0.251669    -0.287204
Al    1.2834809999999999    1.195529    -0.08429600000000001    0.091641    0.086093    -0.016583
Al    -0.275553562    0.74479925    -2.242088773    0.283997    -0.349643    0.306096
F    -1.185160172    -0.8869464530000001    -2.293606606    -0.414848    -0.558814    0.034494
F    2.055578253    -0.416851953    0.7151674520000001    0.246274    -0.442345    -0.245794
F    -0.12146686100000001    2.2814492900000003    -3.353231333    0.06318    0.797337    -0.74719
F    -0.41518581    1.937445753    -0.716069049    -0.376597    0.319913    0.269378
F    2.590939557    2.423827512    -0.320907443    -0.019978    -0.018768    0.003616
F    1.333671239    -0.10416359500000003    -1.563166254    0.286875    -0.184105    -0.225091
F    0.29017911700000004    1.609226429    1.5652480389999999    -0.125383    0.335819    0.195862
F    2.904373969    0.31249107600000003    3.1455594369999997    0.926149    0.132103    0.568129
F    -0.451055325    -0.6706403519999999    2.885680071    -0.573042    -0.369259    0.144286
