12
Properties=species:S:1:pos:R:3:forces:R:3 energy=-186.22654489 pbc="F F F"
Al    -0.02913525699999999    1.656235196    2.432026721    0.591354    1.000457    -1.131912
Al    2.397499896    2.6481284250000003    1.672392375    -0.110383    -0.141085    -0.140755
Al    1.346769858    2.518733781    -0.824790653    0.026542    0.034382    -0.084311
F    1.125509952    3.052381319    3.102451432    -0.076892    0.014834    0.138495
F    -1.443744947    2.7325887430000004    1.806220895    -0.483281    0.443563    -0.266929
F    -0.43686726    0.31520318199999997    3.7202806600000002    -0.299431    -1.37675    1.261181
F    1.4799045690000001    0.940674785    1.5982828340000002    0.170115    -0.059027    -0.167275
F    3.032500742    1.953337672    -0.071853454    0.149239    -0.019543    -0.101391
F    1.6693021140000002    3.094695552    -2.5773490039999998    -0.01049    0.004909    -0.001848
F    1.3904182680000001    3.8826485870000003    0.614020665    -0.027934    0.122125    0.092327
F    4.036218166    2.951421211    2.4498037679999998    0.147898    0.056815    0.093887
F    -0.1043602    1.636320968    -0.11369429499999999    -0.076736    -0.08068    0.30853
