12
Properties=species:S:1:pos:R:3:forces:R:3 energy=-184.95795629 pbc="F F F"
Al    -0.08988565700000001    1.654645196    2.1721216209999996    -0.718193    0.461546    0.289963
Al    2.806355796    2.129316525    2.061499675    -0.38826    -5.78476    1.694876
Al    1.428811558    2.468916181    -0.672876353    2.815646    -2.906998    -0.27499
F    0.929967352    3.154259219    2.8699720319999997    -0.364862    0.521825    0.220459
F    -1.537453047    2.6591321430000003    2.1747142950000002    1.154647    -0.783214    -0.047864
F    -0.5119286599999999    -0.045642718    2.75960856    -0.004829    0.095519    -0.068991
F    2.160733669    1.563899085    1.892953934    2.001802    4.841181    -0.363951
F    2.8390381419999997    1.927334772    -0.13786885399999999    -2.246969    1.266403    -1.054346
F    1.069695414    3.070983452    -2.471409804    -0.231707    0.387698    -0.654422
F    1.735843868    4.184646187    0.685973765    -0.199966    2.299163    0.602107
F    3.5540149660000004    2.897247711    2.233587068    -1.276718    -0.32728    -0.562171
F    -0.0036115    1.826906068    0.185646905    -0.540592    -0.071082    0.219329
