12
Properties=species:S:1:pos:R:3:forces:R:3 energy=-183.81464715 pbc="F F F"
Al    -1.532381161    2.74467822    -1.515391691    1.847112    -1.842321    -1.657055
Al    -0.635359055    0.12591980600000002    -2.230545674    -6.125717    1.895203    2.978381
Al    -1.9534925760000001    -0.292827318    -0.356376837    1.416409    -3.612319    -2.906565
F    -0.7998100410000001    3.560685536    0.018107543000000004    0.164925    0.165762    -0.119301
F    -3.2938159469999997    3.113115193    -2.105899392    -0.316387    0.047685    -0.031279
F    -1.88832208    -1.775509827    -1.4557436609999999    -1.386159    1.674229    2.624798
F    -2.480226862    1.571290383    -0.431055238    0.403193    -0.198278    -0.971282
F    -3.173483063    -1.668649632    0.27668415299999993    -0.299976    -0.686526    -0.051915
F    0.478958098    -0.380898741    -3.546734704    -0.108844    0.581951    0.321488
F    0.039566674999999996    2.061485414    -2.3981703309999998    1.440378    1.630892    -0.689998
F    -2.3702025570000003    0.22729105100000002    -2.256729428    2.656589    -0.213603    0.831511
F    -0.280921268    0.211813039    -0.33047190800000004    0.308476    0.557325    -0.328783
