      12
SCF Done            -183.81464715
Al           -1.569790161         2.585985220        -1.373799691
Al           -0.711524055         0.227337806        -2.269639674
Al           -2.216215576        -0.605808318        -0.378714837
F            -0.718062041         3.693733536        -0.205002457
F            -3.030482947         3.173590193        -2.301068392
F            -1.586337080        -1.717534827        -1.491278661
F            -2.368296862         1.273600383        -0.263487238
F            -3.373082063        -1.551041632         0.688290153
F             0.506213098        -0.317013741        -3.464188704
F            -0.074955325         2.156504414        -2.492578331
F            -2.419986557         0.481474051        -2.342487428
F            -0.254856268         0.168521039        -0.453733908
