12
Properties=species:S:1:pos:R:3:forces:R:3 energy=-186.32272014 pbc="F F F"
Al    -1.462044361    2.5780926199999996    -1.283292891    0.165776    0.005116    -0.175525
Al    -0.634315655    0.25290060600000003    -2.251958074    -0.29017    0.24139    0.189024
Al    -2.211440376    -0.626137518    -0.29750083699999996    -0.038396    -0.319924    0.096307
F    -0.725292041    3.8514467359999998    -0.191340857    0.01933    0.00582    -0.020613
F    -2.933511547    3.0551927930000002    -2.2535377920000004    -0.012896    -0.001227    0.009282
F    -1.65626788    -1.729383227    -1.4961022609999999    -0.102342    0.00549    0.128442
F    -2.592652062    1.261416783    -0.356603638    0.06346    -0.069459    -0.136182
F    -3.428455463    -1.5990866320000001    0.694757353    -0.018264    -0.088299    -0.011523
F    0.5041876980000001    -0.314584941    -3.5117173040000003    -0.005187    0.081596    0.033508
F    -0.18862352500000001    2.207698414    -2.7380367310000002    0.121122    0.123183    -0.062008
F    -2.332897757    0.562855251    -2.2703430279999997    0.063158    0.001838    -0.01525
F    -0.19242246799999999    0.06944743900000001    -0.42830990799999996    0.034408    0.014476    -0.035462
