12
-187.24475565
Al		0.350362639		-0.60397301		1.735776041
Al		2.352826935		-1.789791478		-0.520977826
Al		-0.894650062		-1.831497876		-0.994076104
F		3.475063963		-0.497497061		-1.112197335
F		-1.833732599		-0.565676381		-1.885592373
F		2.736328683		-3.560268173		-0.491843688
F		-1.225878285		-3.611153645		-1.069065121
F		1.894100624		-1.413409636		1.213310284
F		0.831863564		-1.508319986		-1.489655481
F		0.108329199		-1.173553317		3.447372173
F		0.406393903		1.13923735		1.197487768
F		-0.959327661		-1.450055381		0.797617724
