12
-187.24475565
Al		0.350423926		-0.604361171		1.735389568
Al		2.353020566		-1.78987878		-0.521104854
Al		-0.894797152		-1.831589554		-0.994252768
F		3.474972734		-0.49759425		-1.112148846
F		-1.833656578		-0.565771422		-1.885519519
F		2.736286291		-3.560095381		-0.491841946
F		-1.225842511		-3.61097985		-1.069051992
F		1.893882343		-1.413278828		1.213517691
F		0.831868014		-1.508305578		-1.489687299
F		0.108280653		-1.17365264		3.447714164
F		0.40640293		1.139577432		1.197395826
F		-0.959180977		-1.449919886		0.7978783
