12
-187.24475565
Al		0.3505465		-0.605137493		1.734616622
Al		2.353407828		-1.790053384		-0.52135891
Al		-0.895091332		-1.83177291		-0.994606096
F		3.474790276		-0.497788628		-1.112051868
F		-1.833504536		-0.565961504		-1.885373811
F		2.736201507		-3.559749797		-0.491838462
F		-1.225770963		-3.61063226		-1.069025734
F		1.893445781		-1.413017212		1.213932505
F		0.831876914		-1.508276762		-1.489750935
F		0.108183561		-1.173851286		3.448398146
F		0.406420984		1.140257596		1.197211942
F		-0.958887609		-1.449648896		0.798399452
