12
-187.24475565
Al		0.350607787		-0.605525654		1.734230149
Al		2.353601459		-1.790140686		-0.521485938
Al		-0.895238422		-1.831864588		-0.99478276
F		3.474699047		-0.497885817		-1.112003379
F		-1.833428515		-0.566056545		-1.885300957
F		2.736159115		-3.559577005		-0.49183672
F		-1.225735189		-3.610458465		-1.069012605
F		1.8932275		-1.412886404		1.214139912
F		0.831881364		-1.508262354		-1.489782753
F		0.108135015		-1.173950609		3.448740137
F		0.406430011		1.140597678		1.19712
F		-0.958740925		-1.449513401		0.798660028
