12
-187.24475565
Al		0.351098083		-0.608630942		1.731138365
Al		2.355150507		-1.790839102		-0.522502162
Al		-0.896415142		-1.832598012		-0.996196072
F		3.473969215		-0.498663329		-1.111615467
F		-1.832820347		-0.566816873		-1.884718125
F		2.735819979		-3.558194669		-0.491822784
F		-1.225448997		-3.609068105		-1.068907573
F		1.891481252		-1.41183994		1.215799168
F		0.831916964		-1.50814709		-1.490037297
F		0.107746647		-1.174745193		3.451476065
F		0.406502227		1.143318334		1.196384464
F		-0.957567453		-1.448429441		0.800744636
