12
-187.24475565
Al		0.351465805		-0.610959908		1.728819527
Al		2.356312293		-1.791362914		-0.52326433
Al		-0.897297682		-1.83314808		-0.997256056
F		3.473421841		-0.499246463		-1.111324533
F		-1.832364221		-0.567387119		-1.884281001
F		2.735565627		-3.557157917		-0.491812332
F		-1.225234353		-3.608025335		-1.068828799
F		1.890171566		-1.411055092		1.21704361
F		0.831943664		-1.508060642		-1.490228205
F		0.107455371		-1.175341131		3.453528011
F		0.406556389		1.145358826		1.195832812
F		-0.956687349		-1.447616471		0.802308092
