12
-187.24475565
Al		0.351588379		-0.61173623		1.728046581
Al		2.356699555		-1.791537518		-0.523518386
Al		-0.897591862		-1.833331436		-0.997609384
F		3.473239383		-0.499440841		-1.111227555
F		-1.832212179		-0.567577201		-1.884135293
F		2.735480843		-3.556812333		-0.491808848
F		-1.225162805		-3.607677745		-1.068802541
F		1.889735004		-1.410793476		1.217458424
F		0.831952564		-1.508031826		-1.490291841
F		0.107358279		-1.175539777		3.454211993
F		0.406574443		1.14603899		1.195648928
F		-0.956393981		-1.447345481		0.802829244
