12
-187.24475565
Al		0.35177224		-0.612900713		1.726887162
Al		2.357280448		-1.791799424		-0.52389947
Al		-0.898033132		-1.83360647		-0.998139376
F		3.472965696		-0.499732408		-1.111082088
F		-1.831984116		-0.567862324		-1.883916731
F		2.735353667		-3.556293957		-0.491803622
F		-1.225055483		-3.60715636		-1.068763154
F		1.889080161		-1.410401052		1.218080645
F		0.831965914		-1.507988602		-1.490387295
F		0.107212641		-1.175837746		3.455237966
F		0.406601524		1.147059236		1.195373102
F		-0.955953929		-1.446938996		0.803610972
