12
-187.24475565
Al		0.351894814		-0.613677035		1.726114216
Al		2.35766771		-1.791974028		-0.524153526
Al		-0.898327312		-1.833789826		-0.998492704
F		3.472783238		-0.499926786		-1.11098511
F		-1.831832074		-0.568052406		-1.883771023
F		2.735268883		-3.555948373		-0.491800138
F		-1.224983935		-3.60680877		-1.068736896
F		1.888643599		-1.410139436		1.218495459
F		0.831974814		-1.507959786		-1.490450931
F		0.107115549		-1.176036392		3.455921948
F		0.406619578		1.1477394		1.195189218
F		-0.955660561		-1.446668006		0.804132124
