12
-187.24475565
Al		0.351956101		-0.614065196		1.725727743
Al		2.357861341		-1.79206133		-0.524280554
Al		-0.898474402		-1.833881504		-0.998669368
F		3.472692009		-0.500023975		-1.110936621
F		-1.831756053		-0.568147447		-1.883698169
F		2.735226491		-3.555775581		-0.491798396
F		-1.224948161		-3.606634975		-1.068723767
F		1.888425318		-1.410008628		1.218702866
F		0.831979264		-1.507945378		-1.490482749
F		0.107067003		-1.176135715		3.456263939
F		0.406628605		1.148079482		1.195097276
F		-0.955513877		-1.446532511		0.8043927
