12
-187.24475565
Al		0.352017388		-0.614453357		1.72534127
Al		2.358054972		-1.792148632		-0.524407582
Al		-0.898621492		-1.833973182		-0.998846032
F		3.47260078		-0.500121164		-1.110888132
F		-1.831680032		-0.568242488		-1.883625315
F		2.735184099		-3.555602789		-0.491796654
F		-1.224912387		-3.60646118		-1.068710638
F		1.888207037		-1.40987782		1.218910273
F		0.831983714		-1.50793097		-1.490514567
F		0.107018457		-1.176235038		3.45660593
F		0.406637632		1.148419564		1.195005334
F		-0.955367193		-1.446397016		0.804653276
