12
-187.24475565
Al		0.349872343		-0.600867722		1.738867825
Al		2.351277887		-1.789093062		-0.519961602
Al		-0.893473342		-1.830764452		-0.992662792
F		3.475793795		-0.496719549		-1.112585247
F		-1.834340767		-0.564916053		-1.886175205
F		2.736667819		-3.561650509		-0.491857624
F		-1.226164477		-3.612544005		-1.069170153
F		1.895846872		-1.4144561		1.211651028
F		0.831827964		-1.50843525		-1.489400937
F		0.108717567		-1.172758733		3.444636245
F		0.406321687		1.136516694		1.198223304
F		-0.960501133		-1.451139341		0.795533116
