12
-187.24475565
Al		0.352139962		-0.615229679		1.724568324
Al		2.358442234		-1.792323236		-0.524661638
Al		-0.898915672		-1.834156538		-0.99919936
F		3.472418322		-0.500315542		-1.110791154
F		-1.83152799		-0.56843257		-1.883479607
F		2.735099315		-3.555257205		-0.49179317
F		-1.224840839		-3.60611359		-1.06868438
F		1.887770475		-1.409616204		1.219325087
F		0.831992614		-1.507902154		-1.490578203
F		0.106921365		-1.176433684		3.457289912
F		0.406655686		1.149099728		1.19482145
F		-0.955073825		-1.446126026		0.805174428
