12
-187.24475565
Al		0.352201249		-0.61561784		1.724181851
Al		2.358635865		-1.792410538		-0.524788666
Al		-0.899062762		-1.834248216		-0.999376024
F		3.472327093		-0.500412731		-1.110742665
F		-1.831451969		-0.568527611		-1.883406753
F		2.735056923		-3.555084413		-0.491791428
F		-1.224805065		-3.605939795		-1.068671251
F		1.887552194		-1.409485396		1.219532494
F		0.831997064		-1.507887746		-1.490610021
F		0.106872819		-1.176533007		3.457631903
F		0.406664713		1.14943981		1.194729508
F		-0.954927141		-1.445990531		0.805435004
