12
-187.24475565
Al		0.35238511		-0.616782323		1.723022432
Al		2.359216758		-1.792672444		-0.52516975
Al		-0.899504032		-1.83452325		-0.999906016
F		3.472053406		-0.500704298		-1.110597198
F		-1.831223906		-0.568812734		-1.883188191
F		2.734929747		-3.554566037		-0.491786202
F		-1.224697743		-3.60541841		-1.068631864
F		1.886897351		-1.409092972		1.220154715
F		0.832010414		-1.507844522		-1.490705475
F		0.106727181		-1.176830976		3.458657876
F		0.406691794		1.150460056		1.194453682
F		-0.954487089		-1.445584046		0.806216732
