12
-187.24475565
Al		0.352446397		-0.617170484		1.722635959
Al		2.359410389		-1.792759746		-0.525296778
Al		-0.899651122		-1.834614928		-1.00008268
F		3.471962177		-0.500801487		-1.110548709
F		-1.831147885		-0.568907775		-1.883115337
F		2.734887355		-3.554393245		-0.49178446
F		-1.224661969		-3.605244615		-1.068618735
F		1.88667907		-1.408962164		1.220362122
F		0.832014864		-1.507830114		-1.490737293
F		0.106678635		-1.176930299		3.458999867
F		0.406700821		1.150800138		1.19436174
F		-0.954340405		-1.445448551		0.806477308
