12
-187.24475565
Al		0.352568971		-0.617946806		1.721863013
Al		2.359797651		-1.79293435		-0.525550834
Al		-0.899945302		-1.834798284		-1.000436008
F		3.471779719		-0.500995865		-1.110451731
F		-1.830995843		-0.569097857		-1.882969629
F		2.734802571		-3.554047661		-0.491780976
F		-1.224590421		-3.604897025		-1.068592477
F		1.886242508		-1.408700548		1.220776936
F		0.832023764		-1.507801298		-1.490800929
F		0.106581543		-1.177128945		3.459683849
F		0.406718875		1.151480302		1.194177856
F		-0.954047037		-1.445177561		0.80699846
