12
-187.24475565
Al		0.352630258		-0.618334967		1.72147654
Al		2.359991282		-1.793021652		-0.525677862
Al		-0.900092392		-1.834889962		-1.000612672
F		3.47168849		-0.501093054		-1.110403242
F		-1.830919822		-0.569192898		-1.882896775
F		2.734760179		-3.553874869		-0.491779234
F		-1.224554647		-3.60472323		-1.068579348
F		1.886024227		-1.40856974		1.220984343
F		0.832028214		-1.50778689		-1.490832747
F		0.106532997		-1.177228268		3.46002584
F		0.406727902		1.151820384		1.194085914
F		-0.953900353		-1.445042066		0.807259036
