12
-187.24475565
Al		0.352875406		-0.619887611		1.719930648
Al		2.360765806		-1.79337086		-0.526185974
Al		-0.900680752		-1.835256674		-1.001319328
F		3.471323574		-0.50148181		-1.110209286
F		-1.830615738		-0.569573062		-1.882605359
F		2.734590611		-3.553183701		-0.491772266
F		-1.224411551		-3.60402805		-1.068526832
F		1.885151103		-1.408046508		1.221813971
F		0.832046014		-1.507729258		-1.490960019
F		0.106338813		-1.17762556		3.461393804
F		0.40676401		1.153180712		1.193718146
F		-0.953313617		-1.444500086		0.80830134
