12
-187.24475565
Al		0.353243128		-0.622216577		1.71761181
Al		2.361927592		-1.793894672		-0.526948142
Al		-0.901563292		-1.835806742		-1.002379312
F		3.4707762		-0.502064944		-1.109918352
F		-1.830159612		-0.570143308		-1.882168235
F		2.734336259		-3.552146949		-0.491761814
F		-1.224196907		-3.60298528		-1.068448058
F		1.883841417		-1.40726166		1.223058413
F		0.832072714		-1.50764281		-1.491150927
F		0.106047537		-1.178221498		3.46344575
F		0.406818172		1.155221204		1.193166494
F		-0.952433513		-1.443687116		0.809864796
