12
-187.24475565
Al		0.353365702		-0.622992899		1.716838864
Al		2.362314854		-1.794069276		-0.527202198
Al		-0.901857472		-1.835990098		-1.00273264
F		3.470593742		-0.502259322		-1.109821374
F		-1.83000757		-0.57033339		-1.882022527
F		2.734251475		-3.551801365		-0.49175833
F		-1.224125359		-3.60263769		-1.0684218
F		1.883404855		-1.407000044		1.223473227
F		0.832081614		-1.507613994		-1.491214563
F		0.105950445		-1.178420144		3.464129732
F		0.406836226		1.155901368		1.19298261
F		-0.952140145		-1.443416126		0.810385948
