12
-187.24475565
Al		0.353488276		-0.623769221		1.716065918
Al		2.362702116		-1.79424388		-0.527456254
Al		-0.902151652		-1.836173454		-1.003085968
F		3.470411284		-0.5024537		-1.109724396
F		-1.829855528		-0.570523472		-1.881876819
F		2.734166691		-3.551455781		-0.491754846
F		-1.224053811		-3.6022901		-1.068395542
F		1.882968293		-1.406738428		1.223888041
F		0.832090514		-1.507585178		-1.491278199
F		0.105853353		-1.17861879		3.464813714
F		0.40685428		1.156581532		1.192798726
F		-0.951846777		-1.443145136		0.8109071
