12
-187.24475565
Al		0.350056204		-0.602032205		1.737708406
Al		2.35185878		-1.789354968		-0.520342686
Al		-0.893914612		-1.831039486		-0.993192784
F		3.475520108		-0.497011116		-1.11243978
F		-1.834112704		-0.565201176		-1.885956643
F		2.736540643		-3.561132133		-0.491852398
F		-1.226057155		-3.61202262		-1.069130766
F		1.895192029		-1.414063676		1.212273249
F		0.831841314		-1.508392026		-1.489496391
F		0.108571929		-1.173056702		3.445662218
F		0.406348768		1.13753694		1.197947478
F		-0.960061081		-1.450732856		0.796314844
