12
-187.24475565
Al		0.354039859		-0.62726267		1.712587661
Al		2.364444795		-1.795029598		-0.528599506
Al		-0.903475462		-1.836998556		-1.004675944
F		3.469590223		-0.503328401		-1.109287995
F		-1.829171339		-0.571378841		-1.881221133
F		2.733785163		-3.549900653		-0.491739168
F		-1.223731845		-3.600725945		-1.068277381
F		1.881003764		-1.405561156		1.225754704
F		0.832130564		-1.507455506		-1.491564561
F		0.105416439		-1.179512697		3.467891633
F		0.406935523		1.15964227		1.191971248
F		-0.950526621		-1.441925681		0.813252284
