12
-187.24475565
Al		0.354346294		-0.629203475		1.710655296
Al		2.36541295		-1.795466108		-0.529234646
Al		-0.904210912		-1.837456946		-1.005559264
F		3.469134078		-0.503814346		-1.10904555
F		-1.828791234		-0.571854046		-1.880856863
F		2.733573203		-3.549036693		-0.491730458
F		-1.223552975		-3.59985697		-1.068211736
F		1.879912359		-1.404907116		1.226791739
F		0.832152814		-1.507383466		-1.491723651
F		0.105173709		-1.180009312		3.469601588
F		0.406980658		1.16134268		1.191511538
F		-0.949793201		-1.441248206		0.814555164
