12
-187.24475565
Al		0.354407581		-0.629591636		1.710268823
Al		2.365606581		-1.79555341		-0.529361674
Al		-0.904358002		-1.837548624		-1.005735928
F		3.469042849		-0.503911535		-1.108997061
F		-1.828715213		-0.571949087		-1.880784009
F		2.733530811		-3.548863901		-0.491728716
F		-1.223517201		-3.599683175		-1.068198607
F		1.879694078		-1.404776308		1.226999146
F		0.832157264		-1.507369058		-1.491755469
F		0.105125163		-1.180108635		3.469943579
F		0.406989685		1.161682762		1.191419596
F		-0.949646517		-1.441112711		0.81481574
