12
-187.24475565
Al		0.354591442		-0.630756119		1.709109404
Al		2.366187474		-1.795815316		-0.529742758
Al		-0.904799272		-1.837823658		-1.00626592
F		3.468769162		-0.504203102		-1.108851594
F		-1.82848715		-0.57223421		-1.880565447
F		2.733403635		-3.548345525		-0.49172349
F		-1.223409879		-3.59916179		-1.06815922
F		1.879039235		-1.404383884		1.227621367
F		0.832170614		-1.507325834		-1.491850923
F		0.104979525		-1.180406604		3.470969552
F		0.407016766		1.162703008		1.19114377
F		-0.949206465		-1.440706226		0.815597468
