12
-187.24475565
Al		0.35483659		-0.632308763		1.707563512
Al		2.366961998		-1.796164524		-0.53025087
Al		-0.905387632		-1.83819037		-1.006972576
F		3.468404246		-0.504591858		-1.108657638
F		-1.828183066		-0.572614374		-1.880274031
F		2.733234067		-3.547654357		-0.491716522
F		-1.223266783		-3.59846661		-1.068106704
F		1.878166111		-1.403860652		1.228450995
F		0.832188414		-1.507268202		-1.491978195
F		0.104785341		-1.180803896		3.472337516
F		0.407052874		1.164063336		1.190776002
F		-0.948619729		-1.440164246		0.816639772
