12
-187.24475565
Al		0.355020451		-0.633473246		1.706404093
Al		2.367542891		-1.79642643		-0.530631954
Al		-0.905828902		-1.838465404		-1.007502568
F		3.468130559		-0.504883425		-1.108512171
F		-1.827955003		-0.572899497		-1.880055469
F		2.733106891		-3.547135981		-0.491711296
F		-1.223159461		-3.597945225		-1.068067317
F		1.877511268		-1.403468228		1.229073216
F		0.832201764		-1.507224978		-1.492073649
F		0.104639703		-1.181101865		3.473363489
F		0.407079955		1.165083582		1.190500176
F		-0.948179677		-1.439757761		0.8174215
