12
-187.24475565
Al		0.350178778		-0.602808527		1.73693546
Al		2.352246042		-1.789529572		-0.520596742
Al		-0.894208792		-1.831222842		-0.993546112
F		3.47533765		-0.497205494		-1.112342802
F		-1.833960662		-0.565391258		-1.885810935
F		2.736455859		-3.560786549		-0.491848914
F		-1.225985607		-3.61167503		-1.069104508
F		1.894755467		-1.41380206		1.212688063
F		0.831850214		-1.50836321		-1.489560027
F		0.108474837		-1.173255348		3.4463462
F		0.406366822		1.138217104		1.197763594
F		-0.959767713		-1.450461866		0.796835996
