12
-187.24475565
Al		0.355143025		-0.634249568		1.705631147
Al		2.367930153		-1.796601034		-0.53088601
Al		-0.906123082		-1.83864876		-1.007855896
F		3.467948101		-0.505077803		-1.108415193
F		-1.827802961		-0.573089579		-1.879909761
F		2.733022107		-3.546790397		-0.491707812
F		-1.223087913		-3.597597635		-1.068041059
F		1.877074706		-1.403206612		1.22948803
F		0.832210664		-1.507196162		-1.492137285
F		0.104542611		-1.181300511		3.474047471
F		0.407098009		1.165763746		1.190316292
F		-0.947886309		-1.439486771		0.817942652
