12
-187.24475565
Al		0.355265599		-0.63502589		1.704858201
Al		2.368317415		-1.796775638		-0.531140066
Al		-0.906417262		-1.838832116		-1.008209224
F		3.467765643		-0.505272181		-1.108318215
F		-1.827650919		-0.573279661		-1.879764053
F		2.732937323		-3.546444813		-0.491704328
F		-1.223016365		-3.597250045		-1.068014801
F		1.876638144		-1.402944996		1.229902844
F		0.832219564		-1.507167346		-1.492200921
F		0.104445519		-1.181499157		3.474731453
F		0.407116063		1.16644391		1.190132408
F		-0.947592941		-1.439215781		0.818463804
