12
-187.24475565
Al		0.355326886		-0.635414051		1.704471728
Al		2.368511046		-1.79686294		-0.531267094
Al		-0.906564352		-1.838923794		-1.008385888
F		3.467674414		-0.50536937		-1.108269726
F		-1.827574898		-0.573374702		-1.879691199
F		2.732894931		-3.546272021		-0.491702586
F		-1.222980591		-3.59707625		-1.068001672
F		1.876419863		-1.402814188		1.230110251
F		0.832224014		-1.507152938		-1.492232739
F		0.104396973		-1.18159848		3.475073444
F		0.40712509		1.166783992		1.190040466
F		-0.947446257		-1.439080286		0.81872438
