12
-187.24475565
Al		0.349014325		-0.595433468		1.744278447
Al		2.348567053		-1.787870834		-0.51818321
Al		-0.891414082		-1.82948096		-0.990189496
F		3.477071001		-0.495358903		-1.113264093
F		-1.835405061		-0.563585479		-1.887195161
F		2.737261307		-3.564069597		-0.491882012
F		-1.226665313		-3.614977135		-1.069353959
F		1.898902806		-1.416287412		1.20874733
F		0.831765664		-1.508636962		-1.488955485
F		0.109397211		-1.171368211		3.439848371
F		0.406195309		1.131755546		1.199510492
F		-0.962554709		-1.453036271		0.791885052
