12
-187.24475565
Al		0.348891751		-0.594657146		1.745051393
Al		2.348179791		-1.78769623		-0.517929154
Al		-0.891119902		-1.829297604		-0.989836168
F		3.477253459		-0.495164525		-1.113361071
F		-1.835557103		-0.563395397		-1.887340869
F		2.737346091		-3.564415181		-0.491885496
F		-1.226736861		-3.615324725		-1.069380217
F		1.899339368		-1.416549028		1.208332516
F		0.831756764		-1.508665778		-1.488891849
F		0.109494303		-1.171169565		3.439164389
F		0.406177255		1.131075382		1.199694376
F		-0.962848077		-1.453307261		0.7913639
