12
-187.24475565
Al		0.348585316		-0.592716341		1.746983758
Al		2.347211636		-1.78725972		-0.517294014
Al		-0.890384452		-1.828839214		-0.988952848
F		3.477709604		-0.49467858		-1.113603516
F		-1.835937208		-0.562920192		-1.887705139
F		2.737558051		-3.565279141		-0.491894206
F		-1.226915731		-3.6161937		-1.069445862
F		1.900430773		-1.417203068		1.207295481
F		0.831734514		-1.508737818		-1.488732759
F		0.109737033		-1.17067295		3.437454434
F		0.40613212		1.129374972		1.200154086
F		-0.963581497		-1.453984736		0.79006102
