12
-187.24475565
Al		0.348462742		-0.591940019		1.747756704
Al		2.346824374		-1.787085116		-0.517039958
Al		-0.890090272		-1.828655858		-0.98859952
F		3.477892062		-0.494484202		-1.113700494
F		-1.83608925		-0.56273011		-1.887850847
F		2.737642835		-3.565624725		-0.49189769
F		-1.226987279		-3.61654129		-1.06947212
F		1.900867335		-1.417464684		1.206880667
F		0.831725614		-1.508766634		-1.488669123
F		0.109834125		-1.170474304		3.436770452
F		0.406114066		1.128694808		1.20033797
F		-0.963874865		-1.454255726		0.789539868
