12
-187.24475565
Al		0.349504621		-0.598538756		1.741186663
Al		2.350116101		-1.78856925		-0.519199434
Al		-0.892590802		-1.830214384		-0.991602808
F		3.476341169		-0.496136415		-1.112876181
F		-1.834796893		-0.564345807		-1.886612329
F		2.736922171		-3.562687261		-0.491868076
F		-1.226379121		-3.613586775		-1.069248927
F		1.897156558		-1.415240948		1.210406586
F		0.831801264		-1.508521698		-1.489210029
F		0.109008843		-1.172162795		3.442584299
F		0.406267525		1.134476202		1.198774956
F		-0.961381237		-1.451952311		0.79396966
