12
-187.24475565
Al		0.348401455		-0.591551858		1.748143177
Al		2.346630743		-1.786997814		-0.51691293
Al		-0.889943182		-1.82856418		-0.988422856
F		3.477983291		-0.494387013		-1.113748983
F		-1.836165271		-0.562635069		-1.887923701
F		2.737685227		-3.565797517		-0.491899432
F		-1.227023053		-3.616715085		-1.069485249
F		1.901085616		-1.417595492		1.20667326
F		0.831721164		-1.508781042		-1.488637305
F		0.109882671		-1.170374981		3.436428461
F		0.406105039		1.128354726		1.200429912
F		-0.964021549		-1.454391221		0.789279292
