12
-187.24475565
Al		0.347911159		-0.58844657		1.751234961
Al		2.345081695		-1.786299398		-0.515896706
Al		-0.888766462		-1.827830756		-0.987009544
F		3.478713123		-0.493609501		-1.114136895
F		-1.836773439		-0.561874741		-1.888506533
F		2.738024363		-3.567179853		-0.491913368
F		-1.227309245		-3.618105445		-1.069590281
F		1.902831864		-1.418641956		1.205014004
F		0.831685564		-1.508896306		-1.488382761
F		0.110271039		-1.169580397		3.433692533
F		0.406032823		1.12563407		1.201165448
F		-0.965195021		-1.455475181		0.787194684
