12
-187.24475565
Al		0.347849872		-0.588058409		1.751621434
Al		2.344888064		-1.786212096		-0.515769678
Al		-0.888619372		-1.827739078		-0.98683288
F		3.478804352		-0.493512312		-1.114185384
F		-1.83684946		-0.5617797		-1.888579387
F		2.738066755		-3.567352645		-0.49191511
F		-1.227345019		-3.61827924		-1.06960341
F		1.903050145		-1.418772764		1.204806597
F		0.831681114		-1.508910714		-1.488350943
F		0.110319585		-1.169481074		3.433350542
F		0.406023796		1.125293988		1.20125739
F		-0.965341705		-1.455610676		0.786934108
