12
-187.24475565
Al		0.347788585		-0.587670248		1.752007907
Al		2.344694433		-1.786124794		-0.51564265
Al		-0.888472282		-1.8276474		-0.986656216
F		3.478895581		-0.493415123		-1.114233873
F		-1.836925481		-0.561684659		-1.888652241
F		2.738109147		-3.567525437		-0.491916852
F		-1.227380793		-3.618453035		-1.069616539
F		1.903268426		-1.418903572		1.20459919
F		0.831676664		-1.508925122		-1.488319125
F		0.110368131		-1.169381751		3.433008551
F		0.406014769		1.124953906		1.201349332
F		-0.965488389		-1.455746171		0.786673532
