12
-187.24475565
Al		0.347727298		-0.587282087		1.75239438
Al		2.344500802		-1.786037492		-0.515515622
Al		-0.888325192		-1.827555722		-0.986479552
F		3.47898681		-0.493317934		-1.114282362
F		-1.837001502		-0.561589618		-1.888725095
F		2.738151539		-3.567698229		-0.491918594
F		-1.227416567		-3.61862683		-1.069629668
F		1.903486707		-1.41903438		1.204391783
F		0.831672214		-1.50893953		-1.488287307
F		0.110416677		-1.169282428		3.43266656
F		0.406005742		1.124613824		1.201441274
F		-0.965635073		-1.455881666		0.786412956
