12
-187.24475565
Al		0.347604724		-0.586505765		1.753167326
Al		2.34411354		-1.785862888		-0.515261566
Al		-0.888031012		-1.827372366		-0.986126224
F		3.479169268		-0.493123556		-1.11437934
F		-1.837153544		-0.561399536		-1.888870803
F		2.738236323		-3.568043813		-0.491922078
F		-1.227488115		-3.61897442		-1.069655926
F		1.903923269		-1.419295996		1.203976969
F		0.831663314		-1.508968346		-1.488223671
F		0.110513769		-1.169083782		3.431982578
F		0.405987688		1.12393366		1.201625158
F		-0.965928441		-1.456152656		0.785891804
