12
-187.24475565
Al		0.347543437		-0.586117604		1.753553799
Al		2.343919909		-1.785775586		-0.515134538
Al		-0.887883922		-1.827280688		-0.98594956
F		3.479260497		-0.493026367		-1.114427829
F		-1.837229565		-0.561304495		-1.888943657
F		2.738278715		-3.568216605		-0.49192382
F		-1.227523889		-3.619148215		-1.069669055
F		1.90414155		-1.419426804		1.203769562
F		0.831658864		-1.508982754		-1.488191853
F		0.110562315		-1.168984459		3.431640587
F		0.405978661		1.123593578		1.2017171
F		-0.966075125		-1.456288151		0.785631228
