12
-187.24475565
Al		0.347420863		-0.585341282		1.754326745
Al		2.343532647		-1.785600982		-0.514880482
Al		-0.887589742		-1.827097332		-0.985596232
F		3.479442955		-0.492831989		-1.114524807
F		-1.837381607		-0.561114413		-1.889089365
F		2.738363499		-3.568562189		-0.491927304
F		-1.227595437		-3.619495805		-1.069695313
F		1.904578112		-1.41968842		1.203354748
F		0.831649964		-1.50901157		-1.488128217
F		0.110659407		-1.168785813		3.430956605
F		0.405960607		1.122913414		1.201900984
F		-0.966368493		-1.456559141		0.785110076
