12
-187.24475565
Al		0.347359576		-0.584953121		1.754713218
Al		2.343339016		-1.78551368		-0.514753454
Al		-0.887442652		-1.827005654		-0.985419568
F		3.479534184		-0.4927348		-1.114573296
F		-1.837457628		-0.561019372		-1.889162219
F		2.738405891		-3.568734981		-0.491929046
F		-1.227631211		-3.6196696		-1.069708442
F		1.904796393		-1.419819228		1.203147341
F		0.831645514		-1.509025978		-1.488096399
F		0.110707953		-1.16868649		3.430614614
F		0.40595158		1.122573332		1.201992926
F		-0.966515177		-1.456694636		0.7848495
