12
-187.24475565
Al		0.347237002		-0.584176799		1.755486164
Al		2.342951754		-1.785339076		-0.514499398
Al		-0.887148472		-1.826822298		-0.98506624
F		3.479716642		-0.492540422		-1.114670274
F		-1.83760967		-0.56082929		-1.889307927
F		2.738490675		-3.569080565		-0.49193253
F		-1.227702759		-3.62001719		-1.0697347
F		1.905232955		-1.420080844		1.202732527
F		0.831636614		-1.509054794		-1.488032763
F		0.110805045		-1.168487844		3.429930632
F		0.405933526		1.121893168		1.20217681
F		-0.966808545		-1.456965626		0.784328348
