12
-187.24475565
Al		0.349382047		-0.597762434		1.741959609
Al		2.349728839		-1.788394646		-0.518945378
Al		-0.892296622		-1.830031028		-0.99124948
F		3.476523627		-0.495942037		-1.112973159
F		-1.834948935		-0.564155725		-1.886758037
F		2.737006955		-3.563032845		-0.49187156
F		-1.226450669		-3.613934365		-1.069275185
F		1.89759312		-1.415502564		1.209991772
F		0.831792364		-1.508550514		-1.489146393
F		0.109105935		-1.171964149		3.441900317
F		0.406249471		1.133796038		1.19895884
F		-0.961674605		-1.452223301		0.793448508
