12
-187.24475565
Al		0.347175715		-0.583788638		1.755872637
Al		2.342758123		-1.785251774		-0.51437237
Al		-0.887001382		-1.82673062		-0.984889576
F		3.479807871		-0.492443233		-1.114718763
F		-1.837685691		-0.560734249		-1.889380781
F		2.738533067		-3.569253357		-0.491934272
F		-1.227738533		-3.620190985		-1.069747829
F		1.905451236		-1.420211652		1.20252512
F		0.831632164		-1.509069202		-1.488000945
F		0.110853591		-1.168388521		3.429588641
F		0.405924499		1.121553086		1.202268752
F		-0.966955229		-1.457101121		0.784067772
