12
-187.24475565
Al		0.346930567		-0.582235994		1.757418529
Al		2.341983599		-1.784902566		-0.513864258
Al		-0.886413022		-1.826363908		-0.98418292
F		3.480172787		-0.492054477		-1.114912719
F		-1.837989775		-0.560354085		-1.889672197
F		2.738702635		-3.569944525		-0.49194124
F		-1.227881629		-3.620886165		-1.069800345
F		1.90632436		-1.420734884		1.201695492
F		0.831614364		-1.509126834		-1.487873673
F		0.111047775		-1.167991229		3.428220677
F		0.405888391		1.120192758		1.20263652
F		-0.967541965		-1.457643101		0.783025468
