12
-187.24475565
Al		0.346746706		-0.581071511		1.758577948
Al		2.341402706		-1.78464066		-0.513483174
Al		-0.885971752		-1.826088874		-0.983652928
F		3.480446474		-0.49176291		-1.115058186
F		-1.838217838		-0.560068962		-1.889890759
F		2.738829811		-3.570462901		-0.491946466
F		-1.227988951		-3.62140755		-1.069839732
F		1.906979203		-1.421127308		1.201073271
F		0.831601014		-1.509170058		-1.487778219
F		0.111193413		-1.16769326		3.427194704
F		0.40586131		1.119172512		1.202912346
F		-0.967982017		-1.458049586		0.78224374
