12
-187.24475565
Al		0.346685419		-0.58068335		1.758964421
Al		2.341209075		-1.784553358		-0.513356146
Al		-0.885824662		-1.825997196		-0.983476264
F		3.480537703		-0.491665721		-1.115106675
F		-1.838293859		-0.559973921		-1.889963613
F		2.738872203		-3.570635693		-0.491948208
F		-1.228024725		-3.621581345		-1.069852861
F		1.907197484		-1.421258116		1.200865864
F		0.831596564		-1.509184466		-1.487746401
F		0.111241959		-1.167593937		3.426852713
F		0.405852283		1.11883243		1.203004288
F		-0.968128701		-1.458185081		0.781983164
