12
-187.24475565
Al		0.34932076		-0.597374273		1.742346082
Al		2.349535208		-1.788307344		-0.51881835
Al		-0.892149532		-1.82993935		-0.991072816
F		3.476614856		-0.495844848		-1.113021648
F		-1.835024956		-0.564060684		-1.886830891
F		2.737049347		-3.563205637		-0.491873302
F		-1.226486443		-3.61410816		-1.069288314
F		1.897811401		-1.415633372		1.209784365
F		0.831787914		-1.508564922		-1.489114575
F		0.109154481		-1.171864826		3.441558326
F		0.406240444		1.133455956		1.199050782
F		-0.961821289		-1.452358796		0.793187932
