12
-187.24475565
Al		0.346562845		-0.579907028		1.759737367
Al		2.340821813		-1.784378754		-0.51310209
Al		-0.885530482		-1.82581384		-0.983122936
F		3.480720161		-0.491471343		-1.115203653
F		-1.838445901		-0.559783839		-1.890109321
F		2.738956987		-3.570981277		-0.491951692
F		-1.228096273		-3.621928935		-1.069879119
F		1.907634046		-1.421519732		1.20045105
F		0.831587664		-1.509213282		-1.487682765
F		0.111339051		-1.167395291		3.426168731
F		0.405834229		1.118152266		1.203188172
F		-0.968422069		-1.458456071		0.781462012
