12
-187.24475565
Al		0.346072549		-0.57680174		1.762829151
Al		2.339272765		-1.783680338		-0.512085866
Al		-0.884353762		-1.825080416		-0.981709624
F		3.481449993		-0.490693831		-1.115591565
F		-1.839054069		-0.559023511		-1.890692153
F		2.739296123		-3.572363613		-0.491965628
F		-1.228382465		-3.623319295		-1.069984151
F		1.909380294		-1.422566196		1.198791794
F		0.831552064		-1.509328546		-1.487428221
F		0.111727419		-1.166600707		3.423432803
F		0.405762013		1.11543161		1.203923708
F		-0.969595541		-1.459540031		0.779377404
