12
-187.24475565
Al		0.346011262		-0.576413579		1.763215624
Al		2.339079134		-1.783593036		-0.511958838
Al		-0.884206672		-1.824988738		-0.98153296
F		3.481541222		-0.490596642		-1.115640054
F		-1.83913009		-0.55892847		-1.890765007
F		2.739338515		-3.572536405		-0.49196737
F		-1.228418239		-3.62349309		-1.06999728
F		1.909598575		-1.422697004		1.198584387
F		0.831547614		-1.509342954		-1.487396403
F		0.111775965		-1.166501384		3.423090812
F		0.405752986		1.115091528		1.20401565
F		-0.969742225		-1.459675526		0.779116828
