12
-187.24475565
Al		0.345337105		-0.572143808		1.767466827
Al		2.336949193		-1.782632714		-0.51056153
Al		-0.882588682		-1.82398028		-0.979589656
F		3.482544741		-0.489527563		-1.116173433
F		-1.839966321		-0.557883019		-1.891566401
F		2.739804827		-3.574437117		-0.491986532
F		-1.228811753		-3.625404835		-1.070141699
F		1.911999666		-1.424135892		1.19630291
F		0.831498664		-1.509501442		-1.487046405
F		0.112309971		-1.165408831		3.419328911
F		0.405653689		1.111350626		1.205027012
F		-0.971355749		-1.461165971		0.776250492
