12
-187.24475565
Al		0.345214531		-0.571367486		1.768239773
Al		2.336561931		-1.78245811		-0.510307474
Al		-0.882294502		-1.823796924		-0.979236328
F		3.482727199		-0.489333185		-1.116270411
F		-1.840118363		-0.557692937		-1.891712109
F		2.739889611		-3.574782701		-0.491990016
F		-1.228883301		-3.625752425		-1.070167957
F		1.912436228		-1.424397508		1.195888096
F		0.831489764		-1.509530258		-1.486982769
F		0.112407063		-1.165210185		3.418644929
F		0.405635635		1.110670462		1.205210896
F		-0.971649117		-1.461436961		0.77572934
