12
-187.24475565
Al		0.344969383		-0.569814842		1.769785665
Al		2.335787407		-1.782108902		-0.509799362
Al		-0.881706142		-1.823430212		-0.978529672
F		3.483092115		-0.488944429		-1.116464367
F		-1.840422447		-0.557312773		-1.892003525
F		2.740059179		-3.575473869		-0.491996984
F		-1.229026397		-3.626447605		-1.070220473
F		1.913309352		-1.42492074		1.195058468
F		0.831471964		-1.50958789		-1.486855497
F		0.112601247		-1.164812893		3.417276965
F		0.405599527		1.109310134		1.205578664
F		-0.972235853		-1.461978941		0.774687036
