12
-187.24475565
Al		0.344846809		-0.56903852		1.770558611
Al		2.335400145		-1.781934298		-0.509545306
Al		-0.881411962		-1.823246856		-0.978176344
F		3.483274573		-0.488750051		-1.116561345
F		-1.840574489		-0.557122691		-1.892149233
F		2.740143963		-3.575819453		-0.492000468
F		-1.229097945		-3.626795195		-1.070246731
F		1.913745914		-1.425182356		1.194643654
F		0.831463064		-1.509616706		-1.486791861
F		0.112698339		-1.164614247		3.416592983
F		0.405581473		1.10862997		1.205762548
F		-0.972529221		-1.462249931		0.774165884
