12
-187.24475565
Al		0.344601661		-0.567485876		1.772104503
Al		2.334625621		-1.78158509		-0.509037194
Al		-0.880823602		-1.822880144		-0.977469688
F		3.483639489		-0.488361295		-1.116755301
F		-1.840878573		-0.556742527		-1.892440649
F		2.740313531		-3.576510621		-0.492007436
F		-1.229241041		-3.627490375		-1.070299247
F		1.914619038		-1.425705588		1.193814026
F		0.831445264		-1.509674338		-1.486664589
F		0.112892523		-1.164216955		3.415225019
F		0.405545365		1.107269642		1.206130316
F		-0.973115957		-1.462791911		0.77312358
