12
-187.24475565
Al		0.3444178		-0.566321393		1.773263922
Al		2.334044728		-1.781323184		-0.50865611
Al		-0.880382332		-1.82260511		-0.976939696
F		3.483913176		-0.488069728		-1.116900768
F		-1.841106636		-0.556457404		-1.892659211
F		2.740440707		-3.577028997		-0.492012662
F		-1.229348363		-3.62801176		-1.070338634
F		1.915273881		-1.426098012		1.193191805
F		0.831431914		-1.509717562		-1.486569135
F		0.113038161		-1.163918986		3.414199046
F		0.405518284		1.106249396		1.206406142
F		-0.973556009		-1.463198396		0.772341852
