12
-187.24475565
Al		0.344356513		-0.565933232		1.773650395
Al		2.333851097		-1.781235882		-0.508529082
Al		-0.880235242		-1.822513432		-0.976763032
F		3.484004405		-0.487972539		-1.116949257
F		-1.841182657		-0.556362363		-1.892732065
F		2.740483099		-3.577201789		-0.492014404
F		-1.229384137		-3.628185555		-1.070351763
F		1.915492162		-1.42622882		1.192984398
F		0.831427464		-1.50973197		-1.486537317
F		0.113086707		-1.163819663		3.413857055
F		0.405509257		1.105909314		1.206498084
F		-0.973702693		-1.463333891		0.772081276
