12
-187.24475565
Al		0.344295226		-0.565545071		1.774036868
Al		2.333657466		-1.78114858		-0.508402054
Al		-0.880088152		-1.822421754		-0.976586368
F		3.484095634		-0.48787535		-1.116997746
F		-1.841258678		-0.556267322		-1.892804919
F		2.740525491		-3.577374581		-0.492016146
F		-1.229419911		-3.62835935		-1.070364892
F		1.915710443		-1.426359628		1.192776991
F		0.831423014		-1.509746378		-1.486505499
F		0.113135253		-1.16372034		3.413515064
F		0.40550023		1.105569232		1.206590026
F		-0.973849377		-1.463469386		0.7718207
