12
-187.24475565
Al		0.349075612		-0.595821629		1.743891974
Al		2.348760684		-1.787958136		-0.518310238
Al		-0.891561172		-1.829572638		-0.99036616
F		3.476979772		-0.495456092		-1.113215604
F		-1.83532904		-0.56368052		-1.887122307
F		2.737218915		-3.563896805		-0.49188027
F		-1.226629539		-3.61480334		-1.06934083
F		1.898684525		-1.416156604		1.208954737
F		0.831770114		-1.508622554		-1.488987303
F		0.109348665		-1.171467534		3.440190362
F		0.406204336		1.132095628		1.19941855
F		-0.962408025		-1.452900776		0.792145628
