12
-187.24475565
Al		0.344050078		-0.563992427		1.77558276
Al		2.332882942		-1.780799372		-0.507893942
Al		-0.879499792		-1.822055042		-0.975879712
F		3.48446055		-0.487486594		-1.117191702
F		-1.841562762		-0.555887158		-1.893096335
F		2.740695059		-3.578065749		-0.492023114
F		-1.229563007		-3.62905453		-1.070417408
F		1.916583567		-1.42688286		1.191947363
F		0.831405214		-1.50980401		-1.486378227
F		0.113329437		-1.163323048		3.4121471
F		0.405464122		1.104208904		1.206957794
F		-0.974436113		-1.464011366		0.770778396
