12
-187.24475565
Al		0.343927504		-0.563216105		1.776355706
Al		2.33249568		-1.780624768		-0.507639886
Al		-0.879205612		-1.821871686		-0.975526384
F		3.484643008		-0.487292216		-1.11728868
F		-1.841714804		-0.555697076		-1.893242043
F		2.740779843		-3.578411333		-0.492026598
F		-1.229634555		-3.62940212		-1.070443666
F		1.917020129		-1.427144476		1.191532549
F		0.831396314		-1.509832826		-1.486314591
F		0.113426529		-1.163124402		3.411463118
F		0.405446068		1.10352874		1.207141678
F		-0.974729481		-1.464282356		0.770257244
