12
-187.24475565
Al		0.34380493		-0.562439783		1.777128652
Al		2.332108418		-1.780450164		-0.50738583
Al		-0.878911432		-1.82168833		-0.975173056
F		3.484825466		-0.487097838		-1.117385658
F		-1.841866846		-0.555506994		-1.893387751
F		2.740864627		-3.578756917		-0.492030082
F		-1.229706103		-3.62974971		-1.070469924
F		1.917456691		-1.427406092		1.191117735
F		0.831387414		-1.509861642		-1.486250955
F		0.113523621		-1.162925756		3.410779136
F		0.405428014		1.102848576		1.207325562
F		-0.975022849		-1.464553346		0.769736092
