12
-187.24475565
Al		0.343682356		-0.561663461		1.777901598
Al		2.331721156		-1.78027556		-0.507131774
Al		-0.878617252		-1.821504974		-0.974819728
F		3.485007924		-0.48690346		-1.117482636
F		-1.842018888		-0.555316912		-1.893533459
F		2.740949411		-3.579102501		-0.492033566
F		-1.229777651		-3.6300973		-1.070496182
F		1.917893253		-1.427667708		1.190702921
F		0.831378514		-1.509890458		-1.486187319
F		0.113620713		-1.16272711		3.410095154
F		0.40540996		1.102168412		1.207509446
F		-0.975316217		-1.464824336		0.76921494
