12
-187.24475565
Al		0.343559782		-0.560887139		1.778674544
Al		2.331333894		-1.780100956		-0.506877718
Al		-0.878323072		-1.821321618		-0.9744664
F		3.485190382		-0.486709082		-1.117579614
F		-1.84217093		-0.55512683		-1.893679167
F		2.741034195		-3.579448085		-0.49203705
F		-1.229849199		-3.63044489		-1.07052244
F		1.918329815		-1.427929324		1.190288107
F		0.831369614		-1.509919274		-1.486123683
F		0.113717805		-1.162528464		3.409411172
F		0.405391906		1.101488248		1.20769333
F		-0.975609585		-1.465095326		0.768693788
