12
Properties=species:S:1:pos:R:3:forces:R:3 energy=-183.73223035 pbc="F F F"
Al    0.261191572    -2.348945611    -1.810844661    -0.084064    -0.323837    -0.076476
Al    2.0192937300000002    -0.5452688560000001    -0.728219224    0.302212    0.06859    0.147431
Al    -0.305436406    0.334336503    -1.8975726830000001    -0.218157    0.255236    -0.070958
F    3.698535688    -0.162011216    -0.13765202299999998    0.063043    0.014307    0.030755
F    -0.156794574    -4.049634293    -2.268423636    -0.01753    -0.067534    -0.015948
F    2.334334238    -1.837949676    -2.236670189    1.033049    -1.608059    1.036032
F    1.968417695    0.784447539    -1.84718062    0.225416    1.879459    1.069217
F    -1.566692422    1.6517675310000002    -2.030559911    -0.045505    0.05324    -0.014802
F    -1.402937886    -0.981734652    -1.0750613690000002    -1.539312    -0.342231    -1.496594
F    -0.496560574    -1.4577641090000002    -3.132310781    -2.101013    -0.483893    -0.279274
F    0.17428139599999998    0.8173611980000001    -0.251129402    0.787114    2.021117    -0.148096
F    1.372562934    -2.4441152099999996    -0.330918773    1.594749    -1.466395    -0.181286
