12
Properties=species:S:1:pos:R:3:forces:R:3 energy=-173.12262245 pbc="F F F"
Al    -2.2968022610000003    2.65964012    -0.9958455909999999    -8.734492    -30.867567    19.038394
Al    -0.4854340549999999    0.311011506    -2.305009974    -3.421514    -4.218902    2.974805
Al    -2.090618076    -0.40344071800000003    -0.676273337    -0.936175    6.750146    0.243746
F    -0.6840884410000001    3.711753336    -0.13708335700000002    2.148527    1.986553    -0.035594
F    -2.8021441470000004    2.997526593    -1.9535086919999998    -0.378402    1.229764    -2.606537
F    -1.4786430799999999    -1.9678545269999999    -1.6619506609999999    1.154909    0.8414    -0.948403
F    -2.398188562    1.9438597830000002    -0.35689993799999997    6.414121    21.935665    -15.082175
F    -3.357024563    -1.451377132    0.717333553    -0.056563    -0.063747    0.186407
F    0.6789694980000001    -0.526016941    -3.709486404    0.194432    1.186073    -0.02296
F    -0.094527025    1.597085614    -2.553831631    1.66199    1.823043    -1.260975
F    -2.402267057    0.466912251    -2.246343728    0.660099    -0.448778    -1.505547
F    -0.33468296799999997    0.16131763899999998    -0.47741910800000004    1.293068    -0.153649    -0.981162
