      12
SCF Done            -185.80586981
Al           -1.696327761         2.561031820        -1.225977691
Al           -0.486216255         0.012941306        -2.394868374
Al           -2.244677176        -0.344844018        -0.465293937
F            -0.752565641         3.692458836        -0.156116257
F            -3.011855047         3.165200693        -2.312818492
F            -1.375768280        -1.479826227        -1.683108561
F            -2.481862462         1.422262383        -0.018969838
F            -3.310313663        -1.364032432         0.669483453
F             0.691054798        -0.549893541        -3.721253004
F            -0.396170425         1.846627814        -2.307617831
F            -2.447779157         0.462983251        -2.299814528
F            -0.318368668         0.140295839        -0.419072508
