12
Properties=species:S:1:pos:R:3:forces:R:3 energy=-186.10122511 pbc="F F F"
Al    -0.101490657    1.615768796    2.1310975209999996    0.561716    -0.054124    -2.391518
Al    2.5254896959999997    2.7407358250000002    1.398291775    0.189378    -0.040721    0.381272
Al    1.2913152579999998    2.651203181    -0.731686253    -0.51548    -0.271487    0.407998
F    1.086815152    2.876069919    2.676575632    0.034844    -0.244723    -0.072929
F    -1.583701747    2.717978943    2.196813095    0.155188    -0.130073    0.096881
F    -0.49395986    -0.06450141799999999    2.7853412599999996    0.102397    0.207687    0.101341
F    1.784945969    1.239904385    1.982810034    -0.957322    0.122955    0.272549
F    2.934879542    1.983172872    0.295298946    -0.183417    0.189781    -0.296221
F    1.057289714    3.059072752    -2.547618204    0.130398    0.045375    0.11816
F    1.988362068    3.666908587    1.003346865    -0.161853    -0.090252    -0.437063
F    3.949508366    3.0640882109999996    2.411627368    0.230575    0.129452    0.133901
F    0.024526    1.796588568    0.298250305    0.413577    0.13613    1.68563
