      12
SCF Done            -186.10122511
Al           -0.066384657         1.622457796         2.052071521
Al            2.538567696         2.603181825         1.791884775
Al            1.331047258         2.650865181        -0.636941253
F             1.004519152         3.067912919         2.826338632
F            -1.553698747         2.667257943         2.180402095
F            -0.480356860         0.002490582         2.756005260
F             1.727996969         0.876112385         1.957498034
F             2.945210542         1.876279872        -0.100290054
F             1.101379714         3.038949752        -2.381855204
F             1.729755068         4.007119587         0.590858865
F             4.137714366         3.138767211         2.474871368
F             0.031382000         1.820739568         0.310865305
