12
Properties=species:S:1:pos:R:3:forces:R:3 energy=-184.77692737 pbc="F F F"
Al    -0.42168503799999996    1.18231876    -1.629890536    0.091047    1.274059    -0.093662
Al    -0.767162514    0.874842053    1.407405636    -0.01219    -0.173269    0.057431
Al    -2.863183319    0.029780489    -1.701435742    2.431384    -4.093715    1.335918
F    -3.408992661    0.775287408    -3.469847708    -1.22433    2.40858    -2.40895
F    -1.027269157    -0.7655487009999999    -2.058313445    0.91952    -0.545524    0.296376
F    -2.167619287    1.8141168029999999    -2.113754383    -0.84773    -0.067668    -0.365266
F    -2.162603325    0.976345939    0.07400242400000001    -0.062799    0.353126    -0.008449
F    0.44639032700000003    1.3400204429999998    -0.031866510999999986    0.196153    -0.315006    0.218101
F    -0.07262897499999998    2.6453397969999997    1.771647947    -0.115452    0.015012    -0.025076
F    0.692603115    -0.24583125800000002    2.041730045    0.06488    0.038434    0.008491
F    -4.368067292    0.51587067    -0.5581271649999999    -1.722639    1.363885    1.270003
F    0.573874427    1.162101937    -3.166236629    0.282158    -0.257912    -0.284917
