      12
SCF Done            -167.06413796
Al           -0.341134238         0.927371360        -1.817453136
Al           -0.441337981         1.044059691         1.282241601
Al           -3.038936103         0.546531278        -1.860491209
F            -3.615565055         0.702761336        -3.607128761
F            -1.452872158        -0.586007304        -2.048272738
F            -1.868080093         2.083219389        -1.686292761
F            -1.942320177         0.290310855         0.463838309
F             0.646426416         1.038541297        -0.290358175
F            -0.595153981         2.893616604         1.635697771
F             0.567408208        -0.080054271         2.396817758
F            -4.260366767         0.135528726        -0.579356713
F             0.751392619         1.226164703        -3.233519044
