12
-187.38518821
Al		1.277739062		-0.012217084		2.569524837
Al		1.3977086		1.1298394		0.27674
Al		-0.235128985		0.858104164		-2.212642273
F		-1.789865204		-0.475789744		-2.210815277
F		2.030331392		-0.265051754		0.648533313
F		0.078759184		1.898816854		-3.914989794
F		-0.463302226		1.952572481		-0.862846495
F		2.585724953		2.422003709		-0.326757444
F		1.217338423		-0.007535272		-1.751253177
F		0.467299871		1.557887223		1.474769502
F		2.44379993		0.552028419		3.530514609
F		0.131208559		-1.090503859		2.779619386
