12
-187.38518821
Al		1.27855418		-0.002023683		2.548576573
Al		1.3775545		1.13974		0.2167695
Al		-0.249124062		0.85438425		-2.230909773
F		-1.769980672		-0.458141453		-2.212135606
F		2.035805253		-0.279562453		0.666432952
F		0.073895639		1.88579029		-3.895449833
F		-0.44592681		1.949242753		-0.847100549
F		2.586083557		2.421827512		-0.325690443
F		1.224912739		0.000565405		-1.730326254
F		0.462972617		1.554806929		1.497850039
F		2.460484969		0.559246076		3.546155437
F		0.112766175		-1.108861852		2.785233571
