12
-187.38518821
Al		1.27936968		0.008170117		2.527628473
Al		1.3574004		1.1496406		0.156799
Al		-0.263118762		0.85066465		-2.249177573
F		-1.750095772		-0.440492853		-2.213456806
F		2.041279053		-0.294073153		0.684332652
F		0.069032939		1.87276449		-3.875909733
F		-0.42855141		1.945912953		-0.831354649
F		2.586442157		2.421651312		-0.324623443
F		1.232487239		0.008666205		-1.709399454
F		0.458645517		1.551726829		1.520930639
F		2.477170769		0.566463876		3.561795837
F		0.094324275		-1.127219352		2.790848471
