12
-187.38518821
Al		1.29078668		0.150883317		2.234355073
Al		1.075243		1.288249		-0.682788
Al		-0.459044562		0.79859025		-2.504926773
F		-1.471707172		-0.193412453		-2.231953606
F		2.117912253		-0.497222953		0.934928452
F		0.000955139		1.69040329		-3.602348333
F		-0.18529581		1.899295753		-0.610912049
F		2.591462557		2.419184512		-0.309685443
F		1.338530239		0.122077405		-1.416424254
F		0.398066117		1.508605429		1.844059039
F		2.710771969		0.667513076		3.780761437
F		-0.163862325		-1.384224352		2.869457071
