12
-187.38518821
Al		1.287525062		0.110108516		2.318147637
Al		1.1558594		1.2486466		-0.442906
Al		-0.403065385		0.813468964		-2.431855873
F		-1.551246404		-0.264006544		-2.226669677
F		2.096016992		-0.439180154		0.863329713
F		0.020406784		1.742507254		-3.680508594
F		-0.254797426		1.912614881		-0.673895695
F		2.590028153		2.419889309		-0.313953444
F		1.308232423		0.089674328		-1.500131577
F		0.415374671		1.520926023		1.751736702
F		2.64402953		0.638643219		3.718199409
F		-0.090094241		-1.310793859		2.846998186
