12
-187.38518821
Al		1.28915568		0.130495717		2.276251273
Al		1.1155512		1.2684478		-0.562847
Al		-0.431055162		0.80602945		-2.468391173
F		-1.511476972		-0.228709653		-2.229311206
F		2.106964653		-0.468201553		0.899129052
F		0.010680539		1.71645489		-3.641428533
F		-0.22004661		1.905955353		-0.642403849
F		2.590745357		2.419536912		-0.311819443
F		1.323381239		0.105875805		-1.458277854
F		0.406720317		1.514765629		1.797897839
F		2.677400369		0.653077476		3.749480637
F		-0.126978525		-1.347509352		2.858227271
