12
-187.38518821
Al		1.28834018		0.120301917		2.297199373
Al		1.1357053		1.2585472		-0.5028765
Al		-0.417060462		0.80974905		-2.450123373
F		-1.531361872		-0.246358253		-2.227990006
F		2.101490853		-0.453690853		0.881229352
F		0.015543239		1.72948069		-3.660968633
F		-0.23742201		1.909285153		-0.658149749
F		2.590386757		2.419713112		-0.312886443
F		1.315806739		0.097775005		-1.479204654
F		0.411047417		1.517845729		1.774817239
F		2.660714569		0.645859676		3.733840237
F		-0.108536625		-1.329151852		2.852612371
