12
-187.38518821
Al		1.28589368		0.089720517		2.360043673
Al		1.1961676		1.2288454		-0.322965
Al		-0.375076362		0.82090785		-2.395319973
F		-1.591016572		-0.299304053		-2.224026406
F		2.085069453		-0.410158753		0.827530252
F		0.030131339		1.76855809		-3.719588933
F		-0.28954821		1.919274553		-0.705387449
F		2.589310957		2.420241712		-0.316087443
F		1.293083239		0.073472605		-1.541985054
F		0.424028717		1.527086029		1.705575439
F		2.610657169		0.624206276		3.686919037
F		-0.053210925		-1.274079352		2.835767671
