12
-187.38518821
Al		1.28752468		0.110108117		2.318147473
Al		1.1558594		1.2486466		-0.442906
Al		-0.403065762		0.81346865		-2.431855573
F		-1.551246772		-0.264006853		-2.226668806
F		2.096017053		-0.439180153		0.863329652
F		0.020405939		1.74250649		-3.680508733
F		-0.25479741		1.912614953		-0.673895649
F		2.590028157		2.419889312		-0.313953443
F		1.308232239		0.089674205		-1.500131454
F		0.415374517		1.520925829		1.751736639
F		2.644028769		0.638641876		3.718199837
F		-0.090094725		-1.310794352		2.846997471
