12
-187.38518821
Al		1.290787062		0.150883716		2.234355237
Al		1.075243		1.288249		-0.682788
Al		-0.459044185		0.798590564		-2.504927073
F		-1.471706804		-0.193412144		-2.231954477
F		2.117912192		-0.497222954		0.934928513
F		0.000955984		1.690404054		-3.602348194
F		-0.185295826		1.899295681		-0.610912095
F		2.591462553		2.419184509		-0.309685444
F		1.338530423		0.122077528		-1.416424377
F		0.398066271		1.508605623		1.844059102
F		2.71077273		0.667514819		3.780761009
F		-0.163861841		-1.384223859		2.869457786
12
-187.38518821
Al		1.289156062		0.130496116		2.276251437
Al		1.1155512		1.2684478		-0.562847
Al		-0.431054785		0.806029764		-2.468391473
F		-1.511476604		-0.228709344		-2.229312077
F		2.106964592		-0.468201554		0.899129113
F		0.010681384		1.716455654		-3.641428394
F		-0.220046626		1.905955281		-0.642403895
F		2.590745353		2.419536909		-0.311819444
F		1.323381423		0.105875928		-1.458277977
F		0.406720471		1.514765823		1.797897902
F		2.67740113		0.653079019		3.749480209
F		-0.126978041		-1.347508859		2.858227986
12
-187.38518821
Al		1.287525062		0.110108516		2.318147637
Al		1.1558594		1.2486466		-0.442906
Al		-0.403065385		0.813468964		-2.431855873
F		-1.551246404		-0.264006544		-2.226669677
F		2.096016992		-0.439180154		0.863329713
F		0.020406784		1.742507254		-3.680508594
F		-0.254797426		1.912614881		-0.673895695
F		2.590028153		2.419889309		-0.313953444
F		1.308232423		0.089674328		-1.500131577
F		0.415374671		1.520926023		1.751736702
F		2.64402953		0.638643219		3.718199409
F		-0.090094241		-1.310793859		2.846998186
12
-187.38518821
Al		1.285894062		0.089720916		2.360043837
Al		1.1961676		1.2288454		-0.322965
Al		-0.375075985		0.820908164		-2.395320273
F		-1.591016204		-0.299303744		-2.224027277
F		2.085069392		-0.410158754		0.827530313
F		0.030132184		1.768558854		-3.719588794
F		-0.289548226		1.919274481		-0.705387495
F		2.589310953		2.420241709		-0.316087444
F		1.293083423		0.073472728		-1.541985177
F		0.424028871		1.527086223		1.705575502
F		2.61065793		0.624207419		3.686918609
F		-0.053210441		-1.274078859		2.835768386
12
-187.38518821
Al		1.284263062		0.069333316		2.401940037
Al		1.2364758		1.2090442		-0.203024
Al		-0.347086585		0.828347364		-2.358784673
F		-1.630786004		-0.334600944		-2.221384877
F		2.074121792		-0.381137354		0.791730913
F		0.039857584		1.794610454		-3.758668994
F		-0.324299026		1.925934081		-0.736879295
F		2.588593753		2.420594109		-0.318221444
F		1.277934423		0.057271128		-1.583838777
F		0.432683071		1.533246423		1.659414302
F		2.57728633		0.609771619		3.655637809
F		-0.016326641		-1.237363859		2.824538586
12
-187.38518821
Al		1.282632062		0.048945716		2.443836237
Al		1.276784		1.189243		-0.083083
Al		-0.319097185		0.835786564		-2.322249073
F		-1.670555804		-0.369898144		-2.218742477
F		2.063174192		-0.352115954		0.755931513
F		0.049582984		1.820662054		-3.797749194
F		-0.359049826		1.932593681		-0.768371095
F		2.587876553		2.420946509		-0.320355444
F		1.262785423		0.041069528		-1.625692377
F		0.441337271		1.539406623		1.613253102
F		2.54391473		0.595335819		3.624357009
F		0.020557159		-1.200648859		2.813308786
12
-187.38518821
Al		1.281001062		0.028558116		2.485732437
Al		1.3170922		1.1694418		0.036858
Al		-0.291107785		0.843225764		-2.285713473
F		-1.710325604		-0.405195344		-2.216100077
F		2.052226592		-0.323094554		0.720132113
F		0.059308384		1.846713654		-3.836829394
F		-0.393800626		1.939253281		-0.799862895
F		2.587159353		2.421298909		-0.322489444
F		1.247636423		0.024867928		-1.667545977
F		0.449991471		1.545566823		1.567091902
F		2.51054313		0.580900019		3.593076209
F		0.057440959		-1.163933859		2.802078986
12
-187.38518821
Al		1.279370062		0.008170516		2.527628637
Al		1.3574004		1.1496406		0.156799
Al		-0.263118385		0.850664964		-2.249177873
F		-1.750095404		-0.440492544		-2.213457677
F		2.041278992		-0.294073154		0.684332713
F		0.069033784		1.872765254		-3.875909594
F		-0.428551426		1.945912881		-0.831354695
F		2.586442153		2.421651309		-0.324623444
F		1.232487423		0.008666328		-1.709399577
F		0.458645671		1.551727023		1.520930702
F		2.47717153		0.566464219		3.561795409
F		0.094324759		-1.127218859		2.790849186
12
-187.38518821
Al		1.277739062		-0.012217084		2.569524837
Al		1.3977086		1.1298394		0.27674
Al		-0.235128985		0.858104164		-2.212642273
F		-1.789865204		-0.475789744		-2.210815277
F		2.030331392		-0.265051754		0.648533313
F		0.078759184		1.898816854		-3.914989794
F		-0.463302226		1.952572481		-0.862846495
F		2.585724953		2.422003709		-0.326757444
F		1.217338423		-0.007535272		-1.751253177
F		0.467299871		1.557887223		1.474769502
F		2.44379993		0.552028419		3.530514609
F		0.131208559		-1.090503859		2.779619386
12
-187.38518821
Al		1.276108062		-0.032604684		2.611421037
Al		1.4380168		1.1100382		0.396681
Al		-0.207139585		0.865543364		-2.176106673
F		-1.829635004		-0.511086944		-2.208172877
F		2.019383792		-0.236030354		0.612733913
F		0.088484584		1.924868454		-3.954069994
F		-0.498053026		1.959232081		-0.894338295
F		2.585007753		2.422356109		-0.328891444
F		1.202189423		-0.023736872		-1.793106777
F		0.475954071		1.564047423		1.428608302
F		2.41042833		0.537592619		3.499233809
F		0.168092359		-1.053788859		2.768389586
