12
Properties=species:S:1:pos:R:3:forces:R:3 energy=-182.57791319 pbc="F F F"
Al    0.337702693    -0.404994658    1.936377239    -0.931152    6.101129    5.853827
Al    2.706116865    -1.730048872    -0.44053549700000005    -4.872642    2.019952    3.728316
Al    -0.38108198100000007    -1.788158758    -0.789272143    3.554227    2.12817    4.955945
F    3.332523207    -0.612793293    -1.05153568    1.633765    1.533035    -0.867491
F    -2.033742354    -0.356459388    -2.059418597    -1.356432    1.494631    -1.303106
F    2.712406395    -3.5796256939999997    -0.490585643    0.84844    -2.820594    -0.107856
F    -1.285560566    -3.770371702    -1.09061122    -0.711207    -2.840617    -0.335065
F    1.987820497    -1.452399393    1.2128069019999999    2.713311    -1.965543    -4.279052
F    0.19579916400000008    -1.5238368820000001    -1.565694665    -0.095618    -0.294914    0.682351
F    0.129142752    -1.1227520629999999    3.271683789    0.88863    2.993848    -6.363722
F    0.397721071    0.965063299    1.243972136    -0.341726    -6.331635    2.903878
F    -1.020861868    -1.547470883    0.557862814    -1.329595    -2.017463    -4.868024
