12
Properties=species:S:1:pos:R:3:forces:R:3 energy=-185.28070578 pbc="F F F"
Al    0.727887593    -0.5696731580000001    1.817313839    1.500512    0.164142    -0.55794
Al    2.309291965    -1.659703972    -0.878125197    -3.156324    -0.53177    -2.370017
Al    -1.113010981    -1.760926158    -0.740584443    -0.873376    1.038117    3.29539
F    3.827295807    -0.474460693    -1.12552118    1.467293    1.456002    1.035542
F    -1.836855654    -0.595740788    -2.075147197    0.067769    0.96829    -2.025371
F    2.581297395    -3.476337094    -0.21096944299999998    0.990851    -1.250637    1.064338
F    -1.067540566    -3.596908602    -1.24019822    0.74592    -1.567648    -0.946555
F    2.076100797    -1.792822293    1.244180702    0.14324    0.528932    -0.227028
F    0.627586964    -1.6757314820000002    -1.594565065    -0.037513    -0.159351    -0.082112
F    -0.155393548    -1.1610429629999999    3.366780189    -0.726983    -0.273971    0.423621
F    0.09012847099999999    1.1363137989999998    1.286115536    0.112043    0.161971    -0.082159
F    -0.8472650679999999    -1.283953183    0.9831150140000001    -0.233433    -0.534076    0.47229
