      12
SCF Done            -185.28070578
Al            0.558432593        -0.596633158         1.770832839
Al            2.188713965        -1.879588972        -0.817014197
Al           -1.135065981        -1.744741158        -0.753246443
F             3.516513807        -0.490454693        -0.828190180
F            -1.714649654        -0.568352788        -2.147695197
F             2.874816395        -3.575289094        -0.305773443
F            -1.041348566        -3.596144602        -1.208268220
F             1.985605797        -1.313001293         0.961914702
F             0.583483964        -1.511682482        -1.525450065
F            -0.036570548        -1.174229963         3.422074189
F             0.443762471         1.135637799         1.204050536
F            -0.944364068        -1.552303183         1.058783014
