12
Properties=species:S:1:pos:R:3:forces:R:3 energy=-187.16445368 pbc="F F F"
Al    0.37942279300000004    -0.779029658    1.551730539    -0.071055    0.402175    0.452285
Al    2.085671365    -1.7116414720000002    -0.44908799699999996    0.595398    -0.170904    -0.177527
Al    -0.661155581    -1.7469184580000001    -0.8492509429999999    -0.515523    -0.185169    -0.339369
F    3.3291580069999998    -0.718027993    -1.02327238    0.23524    0.34562    -0.138158
F    -1.713758554    -0.782792388    -1.757932797    -0.194668    0.340097    -0.200788
F    2.709519495    -3.2932346939999997    -0.506642543    0.042192    -0.415383    0.022382
F    -1.202685066    -3.3434780020000003    -1.07657982    -0.036364    -0.416392    0.010937
F    1.773907097    -1.358635393    1.043839002    0.211895    -0.096493    0.268849
F    0.801888664    -1.605593582    -1.275324965    0.04725    0.153994    -0.337916
F    0.142749052    -1.057165863    3.2008418890000003    -0.05508    -0.179471    0.393909
F    0.39504707099999997    0.924574499    1.294299836    0.018001    0.324702    -0.152189
F    -0.797200568    -1.391655383    0.669275414    -0.277286    -0.102776    0.197585
