12
-187.24475565
Al		0.349688482		-0.599703239		1.740027244
Al		2.350696994		-1.788831156		-0.519580518
Al		-0.893032072		-1.830489418		-0.9921328
F		3.476067482		-0.496427982		-1.112730714
F		-1.83456883		-0.56463093		-1.886393767
F		2.736794995		-3.562168885		-0.49186285
F		-1.226271799		-3.61306539		-1.06920954
F		1.896501715		-1.414848524		1.211028807
F		0.831814614		-1.508478474		-1.489305483
F		0.108863205		-1.172460764		3.443610272
F		0.406294606		1.135496448		1.19849913
F		-0.960941185		-1.451545826		0.794751388
