12
-187.24475565
Al		0.350240065		-0.603196688		1.736548987
Al		2.352439673		-1.789616874		-0.52072377
Al		-0.894355882		-1.83131452		-0.993722776
F		3.475246421		-0.497302683		-1.112294313
F		-1.833884641		-0.565486299		-1.885738081
F		2.736413467		-3.560613757		-0.491847172
F		-1.225949833		-3.611501235		-1.069091379
F		1.894537186		-1.413671252		1.21289547
F		0.831854664		-1.508348802		-1.489591845
F		0.108426291		-1.173354671		3.446688191
F		0.406375849		1.138557186		1.197671652
F		-0.959621029		-1.450326371		0.797096572
