12
-187.24475565
Al		0.355755895		-0.638131178		1.701766417
Al		2.369866463		-1.797474054		-0.53215629
Al		-0.907593982		-1.83956554		-1.009622536
F		3.467035811		-0.506049693		-1.107930303
F		-1.827042751		-0.574039989		-1.879181221
F		2.732598187		-3.545062477		-0.491690392
F		-1.222730173		-3.595859685		-1.067909769
F		1.874891896		-1.401898532		1.2315621
F		0.832255164		-1.507052082		-1.492455465
F		0.104057151		-1.182293741		3.477467381
F		0.407188279		1.169164566		1.189396872
F		-0.946419469		-1.438131821		0.820548412
