12
-187.24475565
Al		0.350485213		-0.604749332		1.735003095
Al		2.353214197		-1.789966082		-0.521231882
Al		-0.894944242		-1.831681232		-0.994429432
F		3.474881505		-0.497691439		-1.112100357
F		-1.833580557		-0.565866463		-1.885446665
F		2.736243899		-3.559922589		-0.491840204
F		-1.225806737		-3.610806055		-1.069038863
F		1.893664062		-1.41314802		1.213725098
F		0.831872464		-1.50829117		-1.489719117
F		0.108232107		-1.173751963		3.448056155
F		0.406411957		1.139917514		1.197303884
F		-0.959034293		-1.449784391		0.798138876
