12
-187.24475565
Al		0.350669074		-0.605913815		1.733843676
Al		2.35379509		-1.790227988		-0.521612966
Al		-0.895385512		-1.831956266		-0.994959424
F		3.474607818		-0.497983006		-1.11195489
F		-1.833352494		-0.566151586		-1.885228103
F		2.736116723		-3.559404213		-0.491834978
F		-1.225699415		-3.61028467		-1.068999476
F		1.893009219		-1.412755596		1.214347319
F		0.831885814		-1.508247946		-1.489814571
F		0.108086469		-1.174049932		3.449082128
F		0.406439038		1.14093776		1.197028058
F		-0.958594241		-1.449377906		0.798920604
