12
-187.24475565
Al		0.350730361		-0.606301976		1.733457203
Al		2.353988721		-1.79031529		-0.521739994
Al		-0.895532602		-1.832047944		-0.995136088
F		3.474516589		-0.498080195		-1.111906401
F		-1.833276473		-0.566246627		-1.885155249
F		2.736074331		-3.559231421		-0.491833236
F		-1.225663641		-3.610110875		-1.068986347
F		1.892790938		-1.412624788		1.214554726
F		0.831890264		-1.508233538		-1.489846389
F		0.108037923		-1.174149255		3.449424119
F		0.406448065		1.141277842		1.196936116
F		-0.958447557		-1.449242411		0.79918118
