12
-187.24475565
Al		0.350975509		-0.60785462		1.731911311
Al		2.354763245		-1.790664498		-0.522248106
Al		-0.896120962		-1.832414656		-0.995842744
F		3.474151673		-0.498468951		-1.111712445
F		-1.832972389		-0.566626791		-1.884863833
F		2.735904763		-3.558540253		-0.491826268
F		-1.225520545		-3.609415695		-1.068933831
F		1.891917814		-1.412101556		1.215384354
F		0.831908064		-1.508175906		-1.489973661
F		0.107843739		-1.174546547		3.450792083
F		0.406484173		1.14263817		1.196568348
F		-0.957860821		-1.448700431		0.800223484
