12
-187.24475565
Al		0.35115937		-0.609019103		1.730751892
Al		2.355344138		-1.790926404		-0.52262919
Al		-0.896562232		-1.83268969		-0.996372736
F		3.473877986		-0.498760518		-1.111566978
F		-1.832744326		-0.566911914		-1.884645271
F		2.735777587		-3.558021877		-0.491821042
F		-1.225413223		-3.60889431		-1.068894444
F		1.891262971		-1.411709132		1.216006575
F		0.831921414		-1.508132682		-1.490069115
F		0.107698101		-1.174844516		3.451818056
F		0.406511254		1.143658416		1.196292522
F		-0.957420769		-1.448293946		0.801005212
