12
-187.24475565
Al		0.351220657		-0.609407264		1.730365419
Al		2.355537769		-1.791013706		-0.522756218
Al		-0.896709322		-1.832781368		-0.9965494
F		3.473786757		-0.498857707		-1.111518489
F		-1.832668305		-0.567006955		-1.884572417
F		2.735735195		-3.557849085		-0.4918193
F		-1.225377449		-3.608720515		-1.068881315
F		1.89104469		-1.411578324		1.216213982
F		0.831925864		-1.508118274		-1.490100933
F		0.107649555		-1.174943839		3.452160047
F		0.406520281		1.143998498		1.19620058
F		-0.957274085		-1.448158451		0.801265788
