12
-187.24475565
Al		0.351343231		-0.610183586		1.729592473
Al		2.355925031		-1.79118831		-0.523010274
Al		-0.897003502		-1.832964724		-0.996902728
F		3.473604299		-0.499052085		-1.111421511
F		-1.832516263		-0.567197037		-1.884426709
F		2.735650411		-3.557503501		-0.491815816
F		-1.225305901		-3.608372925		-1.068855057
F		1.890608128		-1.411316708		1.216628796
F		0.831934764		-1.508089458		-1.490164569
F		0.107552463		-1.175142485		3.452844029
F		0.406538335		1.144678662		1.196016696
F		-0.956980717		-1.447887461		0.80178694
