12
-187.24475565
Al		0.349811056		-0.600479561		1.739254298
Al		2.351084256		-1.78900576		-0.519834574
Al		-0.893326252		-1.830672774		-0.992486128
F		3.475885024		-0.49662236		-1.112633736
F		-1.834416788		-0.564821012		-1.886248059
F		2.736710211		-3.561823301		-0.491859366
F		-1.226200251		-3.6127178		-1.069183282
F		1.896065153		-1.414586908		1.211443621
F		0.831823514		-1.508449658		-1.489369119
F		0.108766113		-1.17265941		3.444294254
F		0.40631266		1.136176612		1.198315246
F		-0.960647817		-1.451274836		0.79527254
