12
-187.24475565
Al		0.352078675		-0.614841518		1.724954797
Al		2.358248603		-1.792235934		-0.52453461
Al		-0.898768582		-1.83406486		-0.999022696
F		3.472509551		-0.500218353		-1.110839643
F		-1.831604011		-0.568337529		-1.883552461
F		2.735141707		-3.555429997		-0.491794912
F		-1.224876613		-3.606287385		-1.068697509
F		1.887988756		-1.409747012		1.21911768
F		0.831988164		-1.507916562		-1.490546385
F		0.106969911		-1.176334361		3.456947921
F		0.406646659		1.148759646		1.194913392
F		-0.955220509		-1.446261521		0.804913852
