12
-187.24475565
Al		0.34993363		-0.601255883		1.738481352
Al		2.351471518		-1.789180364		-0.52008863
Al		-0.893620432		-1.83085613		-0.992839456
F		3.475702566		-0.496816738		-1.112536758
F		-1.834264746		-0.565011094		-1.886102351
F		2.736625427		-3.561477717		-0.491855882
F		-1.226128703		-3.61237021		-1.069157024
F		1.895628591		-1.414325292		1.211858435
F		0.831832414		-1.508420842		-1.489432755
F		0.108669021		-1.172858056		3.444978236
F		0.406330714		1.136856776		1.198131362
F		-0.960354449		-1.451003846		0.795793692
