12
-187.24475565
Al		0.352814119		-0.61949945		1.720317121
Al		2.360572175		-1.793283558		-0.526058946
Al		-0.900533662		-1.835164996		-1.001142664
F		3.471414803		-0.501384621		-1.110257775
F		-1.830691759		-0.569478021		-1.882678213
F		2.734633003		-3.553356493		-0.491774008
F		-1.224447325		-3.604201845		-1.068539961
F		1.885369384		-1.408177316		1.221606564
F		0.832041564		-1.507743666		-1.490928201
F		0.106387359		-1.177526237		3.461051813
F		0.406754983		1.15284063		1.193810088
F		-0.953460301		-1.444635581		0.808040764
