12
-187.24475565
Al		0.35299798		-0.620663933		1.719157702
Al		2.361153068		-1.793545464		-0.52644003
Al		-0.900974932		-1.83544003		-1.001672656
F		3.471141116		-0.501676188		-1.110112308
F		-1.830463696		-0.569763144		-1.882459651
F		2.734505827		-3.552838117		-0.491768782
F		-1.224340003		-3.60368046		-1.068500574
F		1.884714541		-1.407784892		1.222228785
F		0.832054914		-1.507700442		-1.491023655
F		0.106241721		-1.177824206		3.462077786
F		0.406782064		1.153860876		1.193534262
F		-0.953020249		-1.444229096		0.808822492
