12
-187.24475565
Al		0.353120554		-0.621440255		1.718384756
Al		2.36154033		-1.793720068		-0.526694086
Al		-0.901269112		-1.835623386		-1.002025984
F		3.470958658		-0.501870566		-1.11001533
F		-1.830311654		-0.569953226		-1.882313943
F		2.734421043		-3.552492533		-0.491765298
F		-1.224268455		-3.60333287		-1.068474316
F		1.884277979		-1.407523276		1.222643599
F		0.832063814		-1.507671626		-1.491087291
F		0.106144629		-1.178022852		3.462761768
F		0.406800118		1.15454104		1.193350378
F		-0.952726881		-1.443958106		0.809343644
