12
-187.24475565
Al		0.353426989		-0.62338106		1.716452391
Al		2.362508485		-1.794156578		-0.527329226
Al		-0.902004562		-1.836081776		-1.002909304
F		3.470502513		-0.502356511		-1.109772885
F		-1.829931549		-0.570428431		-1.881949673
F		2.734209083		-3.551628573		-0.491756588
F		-1.224089585		-3.602463895		-1.068408671
F		1.883186574		-1.406869236		1.223680634
F		0.832086064		-1.507599586		-1.491246381
F		0.105901899		-1.178519467		3.464471723
F		0.406845253		1.15624145		1.192890668
F		-0.951993461		-1.443280631		0.810646524
