12
-187.24475565
Al		0.353672137		-0.624933704		1.714906499
Al		2.363283009		-1.794505786		-0.527837338
Al		-0.902592922		-1.836448488		-1.00361596
F		3.470137597		-0.502745267		-1.109578929
F		-1.829627465		-0.570808595		-1.881658257
F		2.734039515		-3.550937405		-0.49174962
F		-1.223946489		-3.601768715		-1.068356155
F		1.88231345		-1.406346004		1.224510262
F		0.832103864		-1.507541954		-1.491373653
F		0.105707715		-1.178916759		3.465839687
F		0.406881361		1.157601778		1.1925229
F		-0.951406725		-1.442738651		0.811688828
