12
-187.24475565
Al		0.353794711		-0.625710026		1.714133553
Al		2.363670271		-1.79468039		-0.528091394
Al		-0.902887102		-1.836631844		-1.003969288
F		3.469955139		-0.502939645		-1.109481951
F		-1.829475423		-0.570998677		-1.881512549
F		2.733954731		-3.550591821		-0.491746136
F		-1.223874941		-3.601421125		-1.068329897
F		1.881876888		-1.406084388		1.224925076
F		0.832112764		-1.507513138		-1.491437289
F		0.105610623		-1.179115405		3.466523669
F		0.406899415		1.158281942		1.192339016
F		-0.951113357		-1.442467661		0.81220998
