12
-187.24475565
Al		0.353917285		-0.626486348		1.713360607
Al		2.364057533		-1.794854994		-0.52834545
Al		-0.903181282		-1.8368152		-1.004322616
F		3.469772681		-0.503134023		-1.109384973
F		-1.829323381		-0.571188759		-1.881366841
F		2.733869947		-3.550246237		-0.491742652
F		-1.223803393		-3.601073535		-1.068303639
F		1.881440326		-1.405822772		1.22533989
F		0.832121664		-1.507484322		-1.491500925
F		0.105513531		-1.179314051		3.467207651
F		0.406917469		1.158962106		1.192155132
F		-0.950819989		-1.442196671		0.812731132
