12
-187.24475565
Al		0.354162433		-0.628038992		1.711814715
Al		2.364832057		-1.795204202		-0.528853562
Al		-0.903769642		-1.837181912		-1.005029272
F		3.469407765		-0.503522779		-1.109191017
F		-1.829019297		-0.571568923		-1.881075425
F		2.733700379		-3.549555069		-0.491735684
F		-1.223660297		-3.600378355		-1.068251123
F		1.880567202		-1.40529954		1.226169518
F		0.832139464		-1.50742669		-1.491628197
F		0.105319347		-1.179711343		3.468575615
F		0.406953577		1.160322434		1.191787364
F		-0.950233253		-1.441654691		0.813773436
