12
-187.24475565
Al		0.354285007		-0.628815314		1.711041769
Al		2.365219319		-1.795378806		-0.529107618
Al		-0.904063822		-1.837365268		-1.0053826
F		3.469225307		-0.503717157		-1.109094039
F		-1.828867255		-0.571759005		-1.880929717
F		2.733615595		-3.549209485		-0.4917322
F		-1.223588749		-3.600030765		-1.068224865
F		1.88013064		-1.405037924		1.226584332
F		0.832148364		-1.507397874		-1.491691833
F		0.105222255		-1.179909989		3.469259597
F		0.406971631		1.161002598		1.19160348
F		-0.949939885		-1.441383701		0.814294588
