12
-187.24475565
Al		0.350117491		-0.602420366		1.737321933
Al		2.352052411		-1.78944227		-0.520469714
Al		-0.894061702		-1.831131164		-0.993369448
F		3.475428879		-0.497108305		-1.112391291
F		-1.834036683		-0.565296217		-1.885883789
F		2.736498251		-3.560959341		-0.491850656
F		-1.226021381		-3.611848825		-1.069117637
F		1.894973748		-1.413932868		1.212480656
F		0.831845764		-1.508377618		-1.489528209
F		0.108523383		-1.173156025		3.446004209
F		0.406357795		1.137877022		1.197855536
F		-0.959914397		-1.450597361		0.79657542
