12
-187.24475565
Al		0.354530155		-0.630367958		1.709495877
Al		2.365993843		-1.795728014		-0.52961573
Al		-0.904652182		-1.83773198		-1.006089256
F		3.468860391		-0.504105913		-1.108900083
F		-1.828563171		-0.572139169		-1.880638301
F		2.733446027		-3.548518317		-0.491725232
F		-1.223445653		-3.599335585		-1.068172349
F		1.879257516		-1.404514692		1.22741396
F		0.832166164		-1.507340242		-1.491819105
F		0.105028071		-1.180307281		3.470627561
F		0.407007739		1.162362926		1.191235712
F		-0.949353149		-1.440841721		0.815336892
