12
-187.24475565
Al		0.354775303		-0.631920602		1.707949985
Al		2.366768367		-1.796077222		-0.530123842
Al		-0.905240542		-1.838098692		-1.006795912
F		3.468495475		-0.504494669		-1.108706127
F		-1.828259087		-0.572519333		-1.880346885
F		2.733276459		-3.547827149		-0.491718264
F		-1.223302557		-3.598640405		-1.068119833
F		1.878384392		-1.40399146		1.228243588
F		0.832183964		-1.50728261		-1.491946377
F		0.104833887		-1.180704573		3.471995525
F		0.407043847		1.163723254		1.190867944
F		-0.948766413		-1.440299741		0.816379196
