12
-187.24475565
Al		0.354959164		-0.633085085		1.706790566
Al		2.36734926		-1.796339128		-0.530504926
Al		-0.905681812		-1.838373726		-1.007325904
F		3.468221788		-0.504786236		-1.10856066
F		-1.828031024		-0.572804456		-1.880128323
F		2.733149283		-3.547308773		-0.491713038
F		-1.223195235		-3.59811902		-1.068080446
F		1.877729549		-1.403599036		1.228865809
F		0.832197314		-1.507239386		-1.492041831
F		0.104688249		-1.181002542		3.473021498
F		0.407070928		1.1647435		1.190592118
F		-0.948326361		-1.439893256		0.817160924
