12
-187.24475565
Al		0.355081738		-0.633861407		1.70601762
Al		2.367736522		-1.796513732		-0.530758982
Al		-0.905975992		-1.838557082		-1.007679232
F		3.46803933		-0.504980614		-1.108463682
F		-1.827878982		-0.572994538		-1.879982615
F		2.733064499		-3.546963189		-0.491709554
F		-1.223123687		-3.59777143		-1.068054188
F		1.877292987		-1.40333742		1.229280623
F		0.832206214		-1.50721057		-1.492105467
F		0.104591157		-1.181201188		3.47370548
F		0.407088982		1.165423664		1.190408234
F		-0.948032993		-1.439622266		0.817682076
