12
-187.24475565
Al		0.355510747		-0.636578534		1.703312309
Al		2.369091939		-1.797124846		-0.531648178
Al		-0.907005622		-1.839198828		-1.00891588
F		3.467400727		-0.505660937		-1.108124259
F		-1.827346835		-0.573659825		-1.879472637
F		2.732767755		-3.545753645		-0.49169736
F		-1.222873269		-3.596554865		-1.067962285
F		1.87576502		-1.402421764		1.230732472
F		0.832237364		-1.507109714		-1.492328193
F		0.104251335		-1.181896449		3.476099417
F		0.407152171		1.167804238		1.18976464
F		-0.947006205		-1.438673801		0.819506108
