12
-187.24475565
Al		0.355694608		-0.637743017		1.70215289
Al		2.369672832		-1.797386752		-0.532029262
Al		-0.907446892		-1.839473862		-1.009445872
F		3.46712704		-0.505952504		-1.107978792
F		-1.827118772		-0.573944948		-1.879254075
F		2.732640579		-3.545235269		-0.491692134
F		-1.222765947		-3.59603348		-1.067922898
F		1.875110177		-1.40202934		1.231354693
F		0.832250714		-1.50706649		-1.492423647
F		0.104105697		-1.182194418		3.47712539
F		0.407179252		1.168824484		1.189488814
F		-0.946566153		-1.438267316		0.820287836
