12
-187.24475565
Al		0.349565908		-0.598926917		1.74080019
Al		2.350309732		-1.788656552		-0.519326462
Al		-0.892737892		-1.830306062		-0.991779472
F		3.47624994		-0.496233604		-1.112827692
F		-1.834720872		-0.564440848		-1.886539475
F		2.736879779		-3.562514469		-0.491866334
F		-1.226343347		-3.61341298		-1.069235798
F		1.896938277		-1.41511014		1.210613993
F		0.831805714		-1.50850729		-1.489241847
F		0.108960297		-1.172262118		3.44292629
F		0.406276552		1.134816284		1.198683014
F		-0.961234553		-1.451816816		0.794230236
