12
-187.24475565
Al		0.348953038		-0.595045307		1.74466492
Al		2.348373422		-1.787783532		-0.518056182
Al		-0.891266992		-1.829389282		-0.990012832
F		3.47716223		-0.495261714		-1.113312582
F		-1.835481082		-0.563490438		-1.887268015
F		2.737303699		-3.564242389		-0.491883754
F		-1.226701087		-3.61515093		-1.069367088
F		1.899121087		-1.41641822		1.208539923
F		0.831761214		-1.50865137		-1.488923667
F		0.109445757		-1.171268888		3.43950638
F		0.406186282		1.131415464		1.199602434
F		-0.962701393		-1.453171766		0.791624476
