12
-187.24475565
Al		0.348769177		-0.593880824		1.745824339
Al		2.347792529		-1.787521626		-0.517675098
Al		-0.890825722		-1.829114248		-0.98948284
F		3.477435917		-0.494970147		-1.113458049
F		-1.835709145		-0.563205315		-1.887486577
F		2.737430875		-3.564760765		-0.49188898
F		-1.226808409		-3.615672315		-1.069406475
F		1.89977593		-1.416810644		1.207917702
F		0.831747864		-1.508694594		-1.488828213
F		0.109591395		-1.170970919		3.438480407
F		0.406159201		1.130395218		1.19987826
F		-0.963141445		-1.453578251		0.790842748
