12
-187.24475565
Al		0.34870789		-0.593492663		1.746210812
Al		2.347598898		-1.787434324		-0.51754807
Al		-0.890678632		-1.82902257		-0.989306176
F		3.477527146		-0.494872958		-1.113506538
F		-1.835785166		-0.563110274		-1.887559431
F		2.737473267		-3.564933557		-0.491890722
F		-1.226844183		-3.61584611		-1.069419604
F		1.899994211		-1.416941452		1.207710295
F		0.831743414		-1.508709002		-1.488796395
F		0.109639941		-1.170871596		3.438138416
F		0.406150174		1.130055136		1.199970202
F		-0.963288129		-1.453713746		0.790582172
