12
-187.24475565
Al		0.348524029		-0.59232818		1.747370231
Al		2.347018005		-1.787172418		-0.517166986
Al		-0.890237362		-1.828747536		-0.988776184
F		3.477800833		-0.494581391		-1.113652005
F		-1.836013229		-0.562825151		-1.887777993
F		2.737600443		-3.565451933		-0.491895948
F		-1.226951505		-3.616367495		-1.069458991
F		1.900649054		-1.417333876		1.207088074
F		0.831730064		-1.508752226		-1.488700941
F		0.109785579		-1.170573627		3.437112443
F		0.406123093		1.12903489		1.200246028
F		-0.963728181		-1.454120231		0.789800444
