12
-187.24475565
Al		0.348278881		-0.590775536		1.748916123
Al		2.346243481		-1.78682321		-0.516658874
Al		-0.889649002		-1.828380824		-0.988069528
F		3.478165749		-0.494192635		-1.113845961
F		-1.836317313		-0.562444987		-1.888069409
F		2.737770011		-3.566143101		-0.491902916
F		-1.227094601		-3.617062675		-1.069511507
F		1.901522178		-1.417857108		1.206258446
F		0.831712264		-1.508809858		-1.488573669
F		0.109979763		-1.170176335		3.435744479
F		0.406086985		1.127674562		1.200613796
F		-0.964314917		-1.454662211		0.78875814
