12
-187.24475565
Al		0.348033733		-0.589222892		1.750462015
Al		2.345468957		-1.786474002		-0.516150762
Al		-0.889060642		-1.828014112		-0.987362872
F		3.478530665		-0.493803879		-1.114039917
F		-1.836621397		-0.562064823		-1.888360825
F		2.737939579		-3.566834269		-0.491909884
F		-1.227237697		-3.617757855		-1.069564023
F		1.902395302		-1.41838034		1.205428818
F		0.831694464		-1.50886749		-1.488446397
F		0.110173947		-1.169779043		3.434376515
F		0.406050877		1.126314234		1.200981564
F		-0.964901653		-1.455204191		0.787715836
