12
-187.24475565
Al		0.349443334		-0.598150595		1.741573136
Al		2.34992247		-1.788481948		-0.519072406
Al		-0.892443712		-1.830122706		-0.991426144
F		3.476432398		-0.496039226		-1.11292467
F		-1.834872914		-0.564250766		-1.886685183
F		2.736964563		-3.562860053		-0.491869818
F		-1.226414895		-3.61376057		-1.069262056
F		1.897374839		-1.415371756		1.210199179
F		0.831796814		-1.508536106		-1.489178211
F		0.109057389		-1.172063472		3.442242308
F		0.406258498		1.13413612		1.198866898
F		-0.961527921		-1.452087806		0.793709084
