12
-187.24475565
Al		0.347666011		-0.586893926		1.752780853
Al		2.344307171		-1.78595019		-0.515388594
Al		-0.888178102		-1.827464044		-0.986302888
F		3.479078039		-0.493220745		-1.114330851
F		-1.837077523		-0.561494577		-1.888797949
F		2.738193931		-3.567871021		-0.491920336
F		-1.227452341		-3.618800625		-1.069642797
F		1.903704988		-1.419165188		1.204184376
F		0.831667764		-1.508953938		-1.488255489
F		0.110465223		-1.169183105		3.432324569
F		0.405996715		1.124273742		1.201533216
F		-0.965781757		-1.456017161		0.78615238
