12
-187.24475565
Al		0.347053141		-0.583012316		1.756645583
Al		2.342370861		-1.78507717		-0.514118314
Al		-0.886707202		-1.826547264		-0.984536248
F		3.479990329		-0.492248855		-1.114815741
F		-1.837837733		-0.560544167		-1.889526489
F		2.738617851		-3.569598941		-0.491937756
F		-1.227810081		-3.620538575		-1.069774087
F		1.905887798		-1.420473268		1.202110306
F		0.831623264		-1.509098018		-1.487937309
F		0.110950683		-1.168189875		3.428904659
F		0.405906445		1.120872922		1.202452636
F		-0.967248597		-1.457372111		0.78354662
