12
-187.24475565
Al		0.346991854		-0.582624155		1.757032056
Al		2.34217723		-1.784989868		-0.513991286
Al		-0.886560112		-1.826455586		-0.984359584
F		3.480081558		-0.492151666		-1.11486423
F		-1.837913754		-0.560449126		-1.889599343
F		2.738660243		-3.569771733		-0.491939498
F		-1.227845855		-3.62071237		-1.069787216
F		1.906106079		-1.420604076		1.201902899
F		0.831618814		-1.509112426		-1.487905491
F		0.110999229		-1.168090552		3.428562668
F		0.405897418		1.12053284		1.202544578
F		-0.967395281		-1.457507606		0.783286044
