12
-187.24475565
Al		0.346624132		-0.580295189		1.759350894
Al		2.341015444		-1.784466056		-0.513229118
Al		-0.885677572		-1.825905518		-0.9832996
F		3.480628932		-0.491568532		-1.115155164
F		-1.83836988		-0.55987888		-1.890036467
F		2.738914595		-3.570808485		-0.49194995
F		-1.228060499		-3.62175514		-1.06986599
F		1.907415765		-1.421388924		1.200658457
F		0.831592114		-1.509198874		-1.487714583
F		0.111290505		-1.167494614		3.426510722
F		0.405843256		1.118492348		1.20309623
F		-0.968275385		-1.458320576		0.781722588
