12
-187.24475565
Al		0.346501558		-0.579518867		1.76012384
Al		2.340628182		-1.784291452		-0.512975062
Al		-0.885383392		-1.825722162		-0.982946272
F		3.48081139		-0.491374154		-1.115252142
F		-1.838521922		-0.559688798		-1.890182175
F		2.738999379		-3.571154069		-0.491953434
F		-1.228132047		-3.62210273		-1.069892248
F		1.907852327		-1.42165054		1.200243643
F		0.831583214		-1.50922769		-1.487650947
F		0.111387597		-1.167295968		3.42582674
F		0.405825202		1.117812184		1.203280114
F		-0.968568753		-1.458591566		0.781201436
