12
-187.24475565
Al		0.346317697		-0.578354384		1.761283259
Al		2.340047289		-1.784029546		-0.512593978
Al		-0.884942122		-1.825447128		-0.98241628
F		3.481085077		-0.491082587		-1.115397609
F		-1.838749985		-0.559403675		-1.890400737
F		2.739126555		-3.571672445		-0.49195866
F		-1.228239369		-3.622624115		-1.069931635
F		1.90850717		-1.422042964		1.199621422
F		0.831569864		-1.509270914		-1.487555493
F		0.111533235		-1.166997999		3.424800767
F		0.405798121		1.116791938		1.20355594
F		-0.969008805		-1.458998051		0.780419708
