12
-187.24475565
Al		0.346195123		-0.577578062		1.762056205
Al		2.339660027		-1.783854942		-0.512339922
Al		-0.884647942		-1.825263772		-0.982062952
F		3.481267535		-0.490888209		-1.115494587
F		-1.838902027		-0.559213593		-1.890546445
F		2.739211339		-3.572018029		-0.491962144
F		-1.228310917		-3.622971705		-1.069957893
F		1.908943732		-1.42230458		1.199206608
F		0.831560964		-1.50929973		-1.487491857
F		0.111630327		-1.166799353		3.424116785
F		0.405780067		1.116111774		1.203739824
F		-0.969302173		-1.459269041		0.779898556
