12
-187.24475565
Al		0.345766114		-0.574860935		1.764761516
Al		2.33830461		-1.783243828		-0.511450726
Al		-0.883618312		-1.824622026		-0.980826304
F		3.481906138		-0.490207886		-1.11583401
F		-1.839434174		-0.558548306		-1.891056423
F		2.739508083		-3.573227573		-0.491974338
F		-1.228561335		-3.62418827		-1.070049796
F		1.910471699		-1.423220236		1.197754759
F		0.831529814		-1.509400586		-1.487269131
F		0.111970149		-1.166104092		3.421722848
F		0.405716878		1.1137312		1.204383418
F		-0.970328961		-1.460217506		0.778074524
