12
-187.24475565
Al		0.345704827		-0.574472774		1.765147989
Al		2.338110979		-1.783156526		-0.511323698
Al		-0.883471222		-1.824530348		-0.98064964
F		3.481997367		-0.490110697		-1.115882499
F		-1.839510195		-0.558453265		-1.891129277
F		2.739550475		-3.573400365		-0.49197608
F		-1.228597109		-3.624362065		-1.070062925
F		1.91068998		-1.423351044		1.197547352
F		0.831525364		-1.509414994		-1.487237313
F		0.112018695		-1.166004769		3.421380857
F		0.405707851		1.113391118		1.20447536
F		-0.970475645		-1.460353001		0.777813948
