12
-187.24475565
Al		0.34564354		-0.574084613		1.765534462
Al		2.337917348		-1.783069224		-0.51119667
Al		-0.883324132		-1.82443867		-0.980472976
F		3.482088596		-0.490013508		-1.115930988
F		-1.839586216		-0.558358224		-1.891202131
F		2.739592867		-3.573573157		-0.491977822
F		-1.228632883		-3.62453586		-1.070076054
F		1.910908261		-1.423481852		1.197339945
F		0.831520914		-1.509429402		-1.487205495
F		0.112067241		-1.165905446		3.421038866
F		0.405698824		1.113051036		1.204567302
F		-0.970622329		-1.460488496		0.777553372
