12
-187.24475565
Al		0.345520966		-0.573308291		1.766307408
Al		2.337530086		-1.78289462		-0.510942614
Al		-0.883029952		-1.824255314		-0.980119648
F		3.482271054		-0.48981913		-1.116027966
F		-1.839738258		-0.558168142		-1.891347839
F		2.739677651		-3.573918741		-0.491981306
F		-1.228704431		-3.62488345		-1.070102312
F		1.911344823		-1.423743468		1.196925131
F		0.831512014		-1.509458218		-1.487141859
F		0.112164333		-1.1657068		3.420354884
F		0.40568077		1.112370872		1.204751186
F		-0.970915697		-1.460759486		0.77703222
