12
-187.24475565
Al		0.349136899		-0.59620979		1.743505501
Al		2.348954315		-1.788045438		-0.518437266
Al		-0.891708262		-1.829664316		-0.990542824
F		3.476888543		-0.495553281		-1.113167115
F		-1.835253019		-0.563775561		-1.887049453
F		2.737176523		-3.563724013		-0.491878528
F		-1.226593765		-3.614629545		-1.069327701
F		1.898466244		-1.416025796		1.209162144
F		0.831774564		-1.508608146		-1.489019121
F		0.109300119		-1.171566857		3.440532353
F		0.406213363		1.13243571		1.199326608
F		-0.962261341		-1.452765281		0.792406204
