12
-187.24475565
Al		0.344662948		-0.567874037		1.77171803
Al		2.334819252		-1.781672392		-0.509164222
Al		-0.880970692		-1.822971822		-0.977646352
F		3.48354826		-0.488458484		-1.116706812
F		-1.840802552		-0.556837568		-1.892367795
F		2.740271139		-3.576337829		-0.492005694
F		-1.229205267		-3.62731658		-1.070286118
F		1.914400757		-1.42557478		1.194021433
F		0.831449714		-1.50965993		-1.486696407
F		0.112843977		-1.164316278		3.41556701
F		0.405554392		1.107609724		1.206038374
F		-0.972969273		-1.462656416		0.773384156
