12
-187.24475565
Al		0.344540374		-0.567097715		1.772490976
Al		2.33443199		-1.781497788		-0.508910166
Al		-0.880676512		-1.822788466		-0.977293024
F		3.483730718		-0.488264106		-1.11680379
F		-1.840954594		-0.556647486		-1.892513503
F		2.740355923		-3.576683413		-0.492009178
F		-1.229276815		-3.62766417		-1.070312376
F		1.914837319		-1.425836396		1.193606619
F		0.831440814		-1.509688746		-1.486632771
F		0.112941069		-1.164117632		3.414883028
F		0.405536338		1.10692956		1.206222258
F		-0.973262641		-1.462927406		0.772863004
