12
-187.24475565
Al		0.344479087		-0.566709554		1.772877449
Al		2.334238359		-1.781410486		-0.508783138
Al		-0.880529422		-1.822696788		-0.97711636
F		3.483821947		-0.488166917		-1.116852279
F		-1.841030615		-0.556552445		-1.892586357
F		2.740398315		-3.576856205		-0.49201092
F		-1.229312589		-3.627837965		-1.070325505
F		1.9150556		-1.425967204		1.193399212
F		0.831436364		-1.509703154		-1.486600953
F		0.112989615		-1.164018309		3.414541037
F		0.405527311		1.106589478		1.2063142
F		-0.973409325		-1.463062901		0.772602428
