12
-187.24475565
Al		0.344233939		-0.56515691		1.774423341
Al		2.333463835		-1.781061278		-0.508275026
Al		-0.879941062		-1.822330076		-0.976409704
F		3.484186863		-0.487778161		-1.117046235
F		-1.841334699		-0.556172281		-1.892877773
F		2.740567883		-3.577547373		-0.492017888
F		-1.229455685		-3.628533145		-1.070378021
F		1.915928724		-1.426490436		1.192569584
F		0.831418564		-1.509760786		-1.486473681
F		0.113183799		-1.163621017		3.413173073
F		0.405491203		1.10522915		1.206681968
F		-0.973996061		-1.463604881		0.771560124
