12
-187.24475565
Al		0.344172652		-0.564768749		1.774809814
Al		2.333270204		-1.780973976		-0.508147998
Al		-0.879793972		-1.822238398		-0.97623304
F		3.484278092		-0.487680972		-1.117094724
F		-1.84141072		-0.55607724		-1.892950627
F		2.740610275		-3.577720165		-0.49201963
F		-1.229491459		-3.62870694		-1.07039115
F		1.916147005		-1.426621244		1.192362177
F		0.831414114		-1.509775194		-1.486441863
F		0.113232345		-1.163521694		3.412831082
F		0.405482176		1.104889068		1.20677391
F		-0.974142745		-1.463740376		0.771299548
