12
-187.24475565
Al		0.343621069		-0.5612753		1.778288071
Al		2.331527525		-1.780188258		-0.507004746
Al		-0.878470162		-1.821413296		-0.974643064
F		3.485099153		-0.486806271		-1.117531125
F		-1.842094909		-0.555221871		-1.893606313
F		2.740991803		-3.579275293		-0.492035308
F		-1.229813425		-3.630271095		-1.070509311
F		1.918111534		-1.427798516		1.190495514
F		0.831374064		-1.509904866		-1.486155501
F		0.113669259		-1.162627787		3.409753163
F		0.405400933		1.10182833		1.207601388
F		-0.975462901		-1.464959831		0.768954364
