12
Properties=species:S:1:pos:R:3:forces:R:3 energy=-186.55710279 pbc="F F F"
Al    -0.238827638    1.23767596    -1.537104936    0.079302    0.287375    0.065862
Al    -0.315877914    1.155038453    1.565852436    -0.040871    -0.096002    -0.0097
Al    -2.8533329189999996    0.47258368900000003    -1.589877942    -0.020779    -0.158718    -0.10229
F    -3.3877920610000003    0.350898008    -3.377265908    6e-06    0.012667    0.016298
F    -1.1754871569999998    -0.45131190099999996    -1.653420845    -0.13159    -0.178311    -0.009409
F    -1.9029748869999998    2.144189603    -1.618404183    0.112566    0.060355    0.005111
F    -1.903933325    0.713581939    0.686991024    -0.005478    -0.000894    0.0045
F    0.6911629269999999    1.451153443    -0.052819110999999974    0.028575    -0.000748    -0.0564
F    -0.29008897499999997    2.793151397    2.281928947    0.002866    0.109894    0.044816
F    0.566232915    -0.262004658    2.240708245    0.014602    -0.025266    0.011822
F    -4.118581692    0.10622347    -0.35966316499999995    -0.080987    -0.005383    0.076161
F    0.835418027    1.530307937    -2.993100029    0.041789    -0.004967    -0.046772
