      12
SCF Done            -186.55710279
Al           -0.380429638         1.140079960        -1.815515936
Al           -0.457479914         1.057442453         1.287441436
Al           -2.994934919         0.374987689        -1.868288942
F            -3.506621061         0.268997008        -3.610903908
F            -1.294316157        -0.533212901        -1.887058845
F            -2.021803887         2.062288603        -1.852042183
F            -2.022762325         0.631680939         0.453353024
F             0.572333927         1.369252443        -0.286457111
F            -0.408917975         2.711250397         2.048290947
F             0.447403915        -0.343905658         2.007070245
F            -4.237410692         0.024322470        -0.593301165
F             0.716589027         1.448406937        -3.226738029
