12
Properties=species:S:1:pos:R:3:forces:R:3 energy=-185.88462278 pbc="F F F"
Al    -1.852819861    2.42903762    -1.308100891    -0.561891    -0.568196    0.710913
Al    -0.481731155    -0.172644394    -2.4522725739999998    -0.1494    -1.458538    0.003428
Al    -2.236470376    -0.225884518    -0.674126837    0.750617    1.400895    -1.812122
F    -0.867202541    3.4896982359999997    -0.204931857    -0.071076    0.014645    0.088298
F    -3.075812047    3.381994793    -2.313055792    0.004864    0.023373    -0.082398
F    -1.34388388    -1.6360362270000002    -1.651255761    0.608879    0.539775    -0.422609
F    -2.251221562    1.467114283    0.355430362    -0.31435    0.42335    0.66629
F    -3.163231963    -1.148242632    0.571221853    0.080931    0.318547    0.00729
F    0.769302198    -0.507330941    -3.746868304    0.007763    -0.324445    -0.155522
F    -0.122972525    1.649077914    -1.8482502309999997    -0.422149    -0.325836    0.211067
F    -2.759391757    0.33493175100000006    -2.423833028    0.213567    -0.12693    0.597657
F    -0.417857968    0.541554439    -0.572624408    -0.147755    0.083361    0.187709
