      12
SCF Done            -167.39918020
Al           -1.758795789         2.547528685        -1.166402806
Al           -0.451286170        -0.100319396        -2.382002156
Al           -2.194227386        -0.220727512        -0.576041849
F            -0.774930480         3.682162311        -0.142599773
F            -3.011303970         3.177492866        -2.322112719
F            -1.284367888        -1.656094237        -1.822631754
F            -2.596068480         1.527910310         0.194024385
F            -3.191372130        -1.192878546         0.564229764
F             0.672505090        -0.604370860        -3.721994400
F            -0.451115493         1.779315922        -2.287390122
F            -2.470405757         0.471215751        -2.287162028
F            -0.323871963         0.154478380        -0.378002388
