12
-187.24475565
Al		0.362312793		-0.673525158		1.659878539
Al		2.241899365		-1.757313472		-0.487683497
Al		-0.798682581		-1.796362958		-0.930640943
F		3.402749507		-0.596797993		-1.07088638
F		-1.773734054		-0.663277888		-1.825005797
F		2.720180995		-3.439153694		-0.497365043
F		-1.211877566		-3.489652002		-1.07019432
F		1.841471597		-1.391467393		1.140319002
F		0.819444164		-1.546486082		-1.401040465
F		0.125602552		-1.122188363		3.324273889
F		0.401523571		1.037167499		1.239916336
F		-0.888633068		-1.426529383		0.742592414
