12
-187.24475565
Al		0.365484193		-0.692077658		1.639744739
Al		2.214748365		-1.749455872		-0.479740997
Al		-0.775131981		-1.787854258		-0.915312143
F		3.384397207		-0.621914793		-1.06041318
F		-1.758506354		-0.687963388		-1.809640597
F		2.716016895		-3.408356694		-0.498740143
F		-1.208270066		-3.458755202		-1.07043722
F		1.827659497		-1.385589393		1.122693402
F		0.816352664		-1.555984382		-1.378982165
F		0.129775252		-1.109645063		3.294525289
F		0.400333071		1.012670299		1.250247636
F		-0.870519368		-1.420241383		0.729617814
