12
-187.24475565
Al		0.340112993		-0.543657658		1.800815139
Al		2.431956365		-1.812316672		-0.543280997
Al		-0.963536781		-1.855923858		-1.037942543
F		3.531215607		-0.420980393		-1.14419878
F		-1.880327954		-0.490479388		-1.932562197
F		2.749329695		-3.654732694		-0.487739343
F		-1.237130066		-3.705929602		-1.06849402
F		1.938156297		-1.432613393		1.263698202
F		0.841084664		-1.479997982		-1.555448565
F		0.096393652		-1.209991463		3.532514089
F		0.409857071		1.208647899		1.167597236
F		-1.015428968		-1.470545383		0.833414614
