12
-187.24475565
Al		0.336941595		-0.525105078		1.820948917
Al		2.459107363		-1.820174254		-0.55122349
Al		-0.987087382		-1.86443254		-1.053271336
F		3.549567911		-0.395863593		-1.154672003
F		-1.895555651		-0.465793889		-1.947927421
F		2.753493787		-3.685529677		-0.486364192
F		-1.240737573		-3.736826385		-1.068251069
F		1.951968396		-1.438491332		1.2813238
F		0.844176164		-1.470499682		-1.577506865
F		0.092220951		-1.222534641		3.562262681
F		0.411047579		1.233145166		1.157265872
F		-1.033542669		-1.476833321		0.846389212
