12
-187.24475565
Al		0.330598795		-0.488000078		1.861216517
Al		2.513409363		-1.835889454		-0.56710849
Al		-1.034188582		-1.88144994		-1.083928936
F		3.586272511		-0.345629993		-1.175618403
F		-1.926011051		-0.416422889		-1.978657821
F		2.761821987		-3.747123677		-0.483613992
F		-1.247952573		-3.798619985		-1.067765269
F		1.979592596		-1.450247332		1.316575
F		0.850359164		-1.451503082		-1.621623465
F		0.083875551		-1.247621241		3.621759881
F		0.413428579		1.282139566		1.136603272
F		-1.069770069		-1.489409321		0.872338412
