12
-187.24475565
Al		0.359141393		-0.654972658		1.680012339
Al		2.269050365		-1.765171072		-0.495625997
Al		-0.822233181		-1.804871658		-0.945969743
F		3.421101807		-0.571681193		-1.08135958
F		-1.788961754		-0.638592388		-1.840370997
F		2.724345095		-3.469950694		-0.495989943
F		-1.215485066		-3.520548802		-1.06995142
F		1.855283697		-1.397345393		1.157944602
F		0.822535664		-1.536987782		-1.423098765
F		0.121429852		-1.134731663		3.354022489
F		0.402714071		1.061664699		1.229585036
F		-0.906746768		-1.432817383		0.755567014
