12
-187.24475565
Al		0.362312795		-0.673525078		1.659878517
Al		2.241899363		-1.757313454		-0.48768349
Al		-0.798682582		-1.79636294		-0.930640936
F		3.402749511		-0.596797993		-1.070886403
F		-1.773734051		-0.663277889		-1.825005821
F		2.720180987		-3.439153677		-0.497364992
F		-1.211877573		-3.489651985		-1.070194269
F		1.841471596		-1.391467332		1.140319
F		0.819444164		-1.546486082		-1.401040465
F		0.125602551		-1.122188241		3.324273881
F		0.401523579		1.037167566		1.239916272
F		-0.888633069		-1.426529321		0.742592412
