12
-187.24475565
Al		0.346455793		-0.580762658		1.760547539
Al		2.377654365		-1.796601472		-0.527395997
Al		-0.916435581		-1.838906458		-1.007284943
F		3.494511007		-0.471213993		-1.12325238
F		-1.849872554		-0.539850388		-1.901831797
F		2.741001495		-3.593138694		-0.490489543
F		-1.229915066		-3.644136002		-1.06897982
F		1.910532097		-1.420857393		1.228447002
F		0.834901664		-1.498994582		-1.511331965
F		0.104739052		-1.184904863		3.473016889
F		0.407476071		1.159653499		1.188259836
F		-0.979201568		-1.457969383		0.807465414
