12
-187.24475565
Al		0.352798593		-0.617867658		1.720279939
Al		2.323352365		-1.780886272		-0.511510997
Al		-0.869334381		-1.821889058		-0.976627343
F		3.457806407		-0.521447593		-1.10230598
F		-1.819417154		-0.589221388		-1.871101397
F		2.732673295		-3.531544694		-0.493239743
F		-1.222700066		-3.582342402		-1.06946562
F		1.882907897		-1.409101393		1.193195802
F		0.828718664		-1.517991182		-1.467215365
F		0.113084452		-1.159818263		3.413519689
F		0.405095071		1.110659099		1.208922436
F		-0.942974168		-1.445393383		0.781516214
