12
-187.24475565
Al		0.317913193		-0.413790158		1.941751739
Al		2.622013365		-1.867319872		-0.598878497
Al		-1.128390981		-1.915484758		-1.145244143
F		3.659681707		-0.245162793		-1.21751118
F		-1.986921854		-0.317680888		-2.040118597
F		2.778478395		-3.870311694		-0.478113643
F		-1.262382566		-3.922207202		-1.06679372
F		2.034840997		-1.473759393		1.387077402
F		0.862725164		-1.413509882		-1.709856665
F		0.067184752		-1.297794563		3.740754289
F		0.418190571		1.380128299		1.095278136
F		-1.142224868		-1.514561383		0.924236814
12
-187.24475565
Al		0.321084593		-0.432342658		1.921617939
Al		2.594862365		-1.859462272		-0.590935997
Al		-1.104840381		-1.906976058		-1.129915343
F		3.641329407		-0.270279593		-1.20703798
F		-1.971694154		-0.342366388		-2.024753397
F		2.774314295		-3.839514694		-0.479488743
F		-1.258775066		-3.891310402		-1.06703662
F		2.021028897		-1.467881393		1.369451802
F		0.859633664		-1.423008182		-1.687798365
F		0.071357452		-1.285251263		3.711005689
F		0.417000071		1.355631099		1.105609436
F		-1.124111168		-1.508273383		0.911262214
12
-187.24475565
Al		0.324255993		-0.450895158		1.901484139
Al		2.567711365		-1.851604672		-0.582993497
Al		-1.081289781		-1.898467358		-1.114586543
F		3.622977107		-0.295396393		-1.19656478
F		-1.956466454		-0.367051888		-2.009388197
F		2.770150195		-3.808717694		-0.480863843
F		-1.255167566		-3.860413602		-1.06727952
F		2.007216797		-1.462003393		1.351826202
F		0.856542164		-1.432506482		-1.665740065
F		0.075530152		-1.272707963		3.681257089
F		0.415809571		1.331133899		1.115940736
F		-1.105997468		-1.501985383		0.898287614
12
-187.24475565
Al		0.327427393		-0.469447658		1.881350339
Al		2.540560365		-1.843747072		-0.575050997
Al		-1.057739181		-1.889958658		-1.099257743
F		3.604624807		-0.320513193		-1.18609158
F		-1.941238754		-0.391737388		-1.994022997
F		2.765986095		-3.777920694		-0.482238943
F		-1.251560066		-3.829516802		-1.06752242
F		1.993404697		-1.456125393		1.334200602
F		0.853450664		-1.442004782		-1.643681765
F		0.079702852		-1.260164663		3.651508489
F		0.414619071		1.306636699		1.126272036
F		-1.087883768		-1.495697383		0.885313014
12
-187.24475565
Al		0.330598793		-0.488000158		1.861216539
Al		2.513409365		-1.835889472		-0.567108497
Al		-1.034188581		-1.881449958		-1.083928943
F		3.586272507		-0.345629993		-1.17561838
F		-1.926011054		-0.416422888		-1.978657797
F		2.761821995		-3.747123694		-0.483614043
F		-1.247952566		-3.798620002		-1.06776532
F		1.979592597		-1.450247393		1.316575002
F		0.850359164		-1.451503082		-1.621623465
F		0.083875552		-1.247621363		3.621759889
F		0.413428571		1.282139499		1.136603336
F		-1.069770068		-1.489409383		0.872338414
12
-187.24475565
Al		0.333770193		-0.506552658		1.841082739
Al		2.486258365		-1.828031872		-0.559165997
Al		-1.010637981		-1.872941258		-1.068600143
F		3.567920207		-0.370746793		-1.16514518
F		-1.910783354		-0.441108388		-1.963292597
F		2.757657895		-3.716326694		-0.484989143
F		-1.244345066		-3.767723202		-1.06800822
F		1.965780497		-1.444369393		1.298949402
F		0.847267664		-1.461001382		-1.599565165
F		0.088048252		-1.235078063		3.592011289
F		0.412238071		1.257642299		1.146934636
F		-1.051656368		-1.483121383		0.859363814
12
-187.24475565
Al		0.336941593		-0.525105158		1.820948939
Al		2.459107365		-1.820174272		-0.551223497
Al		-0.987087381		-1.864432558		-1.053271343
F		3.549567907		-0.395863593		-1.15467198
F		-1.895555654		-0.465793888		-1.947927397
F		2.753493795		-3.685529694		-0.486364243
F		-1.240737566		-3.736826402		-1.06825112
F		1.951968397		-1.438491393		1.281323802
F		0.844176164		-1.470499682		-1.577506865
F		0.092220952		-1.222534763		3.562262689
F		0.411047571		1.233145099		1.157265936
F		-1.033542668		-1.476833383		0.846389214
12
-187.24475565
Al		0.340112993		-0.543657658		1.800815139
Al		2.431956365		-1.812316672		-0.543280997
Al		-0.963536781		-1.855923858		-1.037942543
F		3.531215607		-0.420980393		-1.14419878
F		-1.880327954		-0.490479388		-1.932562197
F		2.749329695		-3.654732694		-0.487739343
F		-1.237130066		-3.705929602		-1.06849402
F		1.938156297		-1.432613393		1.263698202
F		0.841084664		-1.479997982		-1.555448565
F		0.096393652		-1.209991463		3.532514089
F		0.409857071		1.208647899		1.167597236
F		-1.015428968		-1.470545383		0.833414614
12
-187.24475565
Al		0.343284393		-0.562210158		1.780681339
Al		2.404805365		-1.804459072		-0.535338497
Al		-0.939986181		-1.847415158		-1.022613743
F		3.512863307		-0.446097193		-1.13372558
F		-1.865100254		-0.515164888		-1.917196997
F		2.745165595		-3.623935694		-0.489114443
F		-1.233522566		-3.675032802		-1.06873692
F		1.924344197		-1.426735393		1.246072602
F		0.837993164		-1.489496282		-1.533390265
F		0.100566352		-1.197448163		3.502765489
F		0.408666571		1.184150699		1.177928536
F		-0.997315268		-1.464257383		0.820440014
12
-187.24475565
Al		0.346455793		-0.580762658		1.760547539
Al		2.377654365		-1.796601472		-0.527395997
Al		-0.916435581		-1.838906458		-1.007284943
F		3.494511007		-0.471213993		-1.12325238
F		-1.849872554		-0.539850388		-1.901831797
F		2.741001495		-3.593138694		-0.490489543
F		-1.229915066		-3.644136002		-1.06897982
F		1.910532097		-1.420857393		1.228447002
F		0.834901664		-1.498994582		-1.511331965
F		0.104739052		-1.184904863		3.473016889
F		0.407476071		1.159653499		1.188259836
F		-0.979201568		-1.457969383		0.807465414
12
-187.24475565
Al		0.349627193		-0.599315158		1.740413739
Al		2.350503365		-1.788743872		-0.519453497
Al		-0.892884981		-1.830397758		-0.991956143
F		3.476158707		-0.496330793		-1.11277918
F		-1.834644854		-0.564535888		-1.886466597
F		2.736837395		-3.562341694		-0.491864643
F		-1.226307566		-3.613239202		-1.06922272
F		1.896719997		-1.414979393		1.210821402
F		0.831810164		-1.508492882		-1.489273665
F		0.108911752		-1.172361563		3.443268289
F		0.406285571		1.135156299		1.198591136
F		-0.961087868		-1.451681383		0.794490814
12
-187.24475565
Al		0.352798593		-0.617867658		1.720279939
Al		2.323352365		-1.780886272		-0.511510997
Al		-0.869334381		-1.821889058		-0.976627343
F		3.457806407		-0.521447593		-1.10230598
F		-1.819417154		-0.589221388		-1.871101397
F		2.732673295		-3.531544694		-0.493239743
F		-1.222700066		-3.582342402		-1.06946562
F		1.882907897		-1.409101393		1.193195802
F		0.828718664		-1.517991182		-1.467215365
F		0.113084452		-1.159818263		3.413519689
F		0.405095071		1.110659099		1.208922436
F		-0.942974168		-1.445393383		0.781516214
12
-187.24475565
Al		0.355969993		-0.636420158		1.700146139
Al		2.296201365		-1.773028672		-0.503568497
Al		-0.845783781		-1.813380358		-0.961298543
F		3.439454107		-0.546564393		-1.09183278
F		-1.804189454		-0.613906888		-1.855736197
F		2.728509195		-3.500747694		-0.494614843
F		-1.219092566		-3.551445602		-1.06970852
F		1.869095797		-1.403223393		1.175570202
F		0.825627164		-1.527489482		-1.445157065
F		0.117257152		-1.147274963		3.383771089
F		0.403904571		1.086161899		1.219253736
F		-0.924860468		-1.439105383		0.768541614
12
-187.24475565
Al		0.359141393		-0.654972658		1.680012339
Al		2.269050365		-1.765171072		-0.495625997
Al		-0.822233181		-1.804871658		-0.945969743
F		3.421101807		-0.571681193		-1.08135958
F		-1.788961754		-0.638592388		-1.840370997
F		2.724345095		-3.469950694		-0.495989943
F		-1.215485066		-3.520548802		-1.06995142
F		1.855283697		-1.397345393		1.157944602
F		0.822535664		-1.536987782		-1.423098765
F		0.121429852		-1.134731663		3.354022489
F		0.402714071		1.061664699		1.229585036
F		-0.906746768		-1.432817383		0.755567014
12
-187.24475565
Al		0.362312793		-0.673525158		1.659878539
Al		2.241899365		-1.757313472		-0.487683497
Al		-0.798682581		-1.796362958		-0.930640943
F		3.402749507		-0.596797993		-1.07088638
F		-1.773734054		-0.663277888		-1.825005797
F		2.720180995		-3.439153694		-0.497365043
F		-1.211877566		-3.489652002		-1.07019432
F		1.841471597		-1.391467393		1.140319002
F		0.819444164		-1.546486082		-1.401040465
F		0.125602552		-1.122188363		3.324273889
F		0.401523571		1.037167499		1.239916336
F		-0.888633068		-1.426529383		0.742592414
12
-187.24475565
Al		0.365484193		-0.692077658		1.639744739
Al		2.214748365		-1.749455872		-0.479740997
Al		-0.775131981		-1.787854258		-0.915312143
F		3.384397207		-0.621914793		-1.06041318
F		-1.758506354		-0.687963388		-1.809640597
F		2.716016895		-3.408356694		-0.498740143
F		-1.208270066		-3.458755202		-1.07043722
F		1.827659497		-1.385589393		1.122693402
F		0.816352664		-1.555984382		-1.378982165
F		0.129775252		-1.109645063		3.294525289
F		0.400333071		1.012670299		1.250247636
F		-0.870519368		-1.420241383		0.729617814
12
-187.24475565
Al		0.368655593		-0.710630158		1.619610939
Al		2.187597365		-1.741598272		-0.471798497
Al		-0.751581381		-1.779345558		-0.899983343
F		3.366044907		-0.647031593		-1.04993998
F		-1.743278654		-0.712648888		-1.794275397
F		2.711852795		-3.377559694		-0.500115243
F		-1.204662566		-3.427858402		-1.07068012
F		1.813847397		-1.379711393		1.105067802
F		0.813261164		-1.565482682		-1.356923865
F		0.133947952		-1.097101763		3.264776689
F		0.399142571		0.988173099		1.260578936
F		-0.852405668		-1.413953383		0.716643214
12
-187.24475565
Al		0.371826993		-0.729182658		1.599477139
Al		2.160446365		-1.733740672		-0.463855997
Al		-0.728030781		-1.770836858		-0.884654543
F		3.347692607		-0.672148393		-1.03946678
F		-1.728050954		-0.737334388		-1.778910197
F		2.707688695		-3.346762694		-0.501490343
F		-1.201055066		-3.396961602		-1.07092302
F		1.800035297		-1.373833393		1.087442202
F		0.810169664		-1.574980982		-1.334865565
F		0.138120652		-1.084558463		3.235028089
F		0.397952071		0.963675899		1.270910236
F		-0.834291968		-1.407665383		0.703668614
12
-187.24475565
Al		0.374998393		-0.747735158		1.579343339
Al		2.133295365		-1.725883072		-0.455913497
Al		-0.704480181		-1.762328158		-0.869325743
F		3.329340307		-0.697265193		-1.02899358
F		-1.712823254		-0.762019888		-1.763544997
F		2.703524595		-3.315965694		-0.502865443
F		-1.197447566		-3.366064802		-1.07116592
F		1.786223197		-1.367955393		1.069816602
F		0.807078164		-1.584479282		-1.312807265
F		0.142293352		-1.072015163		3.205279489
F		0.396761571		0.939178699		1.281241536
F		-0.816178268		-1.401377383		0.690694014
12
-187.24475565
Al		0.378169793		-0.766287658		1.559209539
Al		2.106144365		-1.718025472		-0.447970997
Al		-0.680929581		-1.753819458		-0.853996943
F		3.310988007		-0.722381993		-1.01852038
F		-1.697595554		-0.786705388		-1.748179797
F		2.699360495		-3.285168694		-0.504240543
F		-1.193840066		-3.335168002		-1.07140882
F		1.772411097		-1.362077393		1.052191002
F		0.803986664		-1.593977582		-1.290748965
F		0.146466052		-1.059471863		3.175530889
F		0.395571071		0.914681499		1.291572836
F		-0.798064568		-1.395089383		0.677719414
