      12
SCF Done            -184.98661609
Al           -0.155593457         1.586440396         2.356430821
Al            2.465862196         2.504857225         1.711447075
Al            1.309027458         2.544632981        -0.550597953
F             0.933897952         3.166588019         2.676030332
F            -1.481403647         2.892507243         1.987967495
F            -0.338662760        -0.231821118         2.709881060
F             1.700947969         0.780590585         1.916976734
F             3.164620042         2.075130172        -0.106007154
F             1.123651714         3.060127852        -2.272321204
F             1.840782468         4.010622987         0.561371165
F             4.021280666         3.127912011         2.376126968
F            -0.102029200         1.900649368         0.394945405
