12
Properties=species:S:1:pos:R:3:forces:R:3 energy=-187.21230503 pbc="F F F"
Al    -0.024469306999999996    -0.580458758    1.606399239    -0.446091    -0.687142    0.523419
Al    2.1799955649999996    -1.499417272    -0.6155671970000001    0.284878    0.682306    0.031906
Al    -1.031651281    -1.675988458    -1.294058143    0.094037    0.099172    -0.465898
F    3.307513607    -0.167599093    -1.05473908    -0.11769    -0.182211    0.0341
F    -1.9596736540000002    -0.42119428800000003    -2.111474297    0.001684    -0.020737    0.025954
F    2.670127695    -3.304291094    -0.661465243    0.090755    -0.469209    -0.029979
F    -1.2604693660000001    -3.493533802    -1.45004552    -0.042329    -0.141239    0.003047
F    1.646382797    -1.298653593    1.129356402    0.184685    -0.072121    -0.083105
F    0.727346664    -1.272608482    -1.632411465    -0.207899    -0.025589    -0.066914
F    -0.269287448    -1.271971763    3.282875489    0.054708    0.13602    -0.222205
F    0.044691071    1.186834999    1.195921636    0.040938    0.544607    -0.144914
F    -1.187954768    -1.435116083    0.5607149140000001    0.062324    0.136142    0.394588
