      12
SCF Done            -187.21230503
Al            0.202917693        -0.735197758         1.783712239
Al            2.407382565        -1.654156272        -0.438254197
Al           -0.804264281        -1.830727458        -1.116745143
F             3.498332607        -0.297453093        -0.905941080
F            -1.768854654        -0.551048288        -1.962676297
F             2.860946695        -3.434145094        -0.512667243
F            -1.069650366        -3.623387802        -1.301247520
F             1.837201797        -1.428507593         1.278154402
F             0.918165664        -1.402462482        -1.483613465
F            -0.078468448        -1.401825763         3.431673489
F             0.235510071         1.056980999         1.344719636
F            -0.997135768        -1.564970083         0.709512914
