12
Properties=species:S:1:pos:R:3:forces:R:3 energy=-187.34782955 pbc="F F F"
Al    1.3568816799999999    0.255430517    2.483912873    0.883891    0.670387    0.184965
Al    1.1774558    1.2927842    -0.0892768    -0.031328    0.06466    -0.133602
Al    -0.298114762    0.53183825    -2.348282373    -0.732142    -0.801958    0.345545
F    -1.2952989719999999    -1.025379453    -2.305904606    0.402691    0.390693    -0.083143
F    2.1465970530000003    -0.14853735299999998    0.783246052    -0.012916    -0.091861    0.057042
F    -0.160292261    1.67753829    -3.800333533    0.115498    0.298693    -0.426684
F    -0.60784841    1.634527353    -0.750423849    0.057393    0.081538    0.059398
F    2.292380157    2.7279577120000003    -0.339498843    0.057516    0.049613    -0.001048
F    1.457140039    0.158838005    -1.671377054    0.110326    0.018238    0.028717
F    0.340788517    1.593020029    1.617712639    -0.060528    -0.027716    0.05402
F    2.5650925690000004    0.934316476    3.624351237    -0.318078    -0.169734    -0.237962
F    0.205942275    -1.1321733520000001    2.9088148709999997    -0.472324    -0.482552    0.152751
