      12
SCF Done            -166.79123125
Al           -1.611954589         2.681088685        -1.126825206
Al           -0.593843370         0.002629404        -2.376061356
Al           -2.236193786        -0.331531512        -0.573896249
F            -0.858548480         4.055494711        -0.185386173
F            -2.930951570         3.323620066        -2.209715119
F            -1.335166288        -1.684376637        -1.684035354
F            -2.491503280         1.466550710         0.038332385
F            -3.073817330        -1.659713746         0.424874164
F             0.531424690        -0.926173260        -3.531190400
F            -0.349246693         1.902425122        -2.312384922
F            -2.515550557         0.443440151        -2.365200428
F            -0.362667563         0.268172780        -0.435731588
