12
Properties=species:S:1:pos:R:3:forces:R:3 energy=-184.09714610 pbc="F F F"
Al    0.081340343    1.611522096    1.923724521    2.863251    0.93931    -9.487407
Al    2.384469096    2.514631025    1.894046575    0.191033    -0.035302    0.831734
Al    1.485185658    2.686826081    -0.47233965299999997    -1.392688    -0.87406    1.956429
F    1.026577852    3.336218519    3.035904332    0.061888    -0.609021    -0.154573
F    -1.418465947    2.529410543    2.155209595    0.160122    -0.214129    0.373366
F    -0.48610596    0.08199778199999999    2.73702576    0.171981    0.310826    0.368763
F    1.564824369    0.6341295849999999    1.9771937339999999    -2.596917    0.410141    0.597481
F    3.142818342    1.641277872    -0.505258454    -0.485063    0.435259    -0.747876
F    1.1506067139999998    2.9940309519999997    -2.1454103040000003    0.251199    0.087764    0.274152
F    1.516029368    4.454114087    0.38928526499999994    -0.330065    -0.359774    -1.031421
F    3.955088466    3.095271611    2.408033668    0.583652    0.326935    0.30899
F    0.016446100000000005    1.8048788679999999    0.397767005    0.521606    -0.417949    6.710362
