      12
SCF Done            -184.09714604
Al           -0.049125657         1.594987096         1.897322521
Al            2.558379096         2.597249025         1.831129575
Al            1.290087658         2.630466081        -0.621796653
F             1.009459852         3.030302519         2.812553332
F            -1.516769947         2.641035543         2.186553595
F            -0.461224960         0.045817782         2.760893760
F             1.605881369         0.887840585         1.992696734
F             2.915410342         1.905277872        -0.141569454
F             1.122046714         3.045157952        -2.361274304
F             1.702725368         3.995199087         0.527567265
F             4.177997466         3.158716611         2.497611668
F             0.093010100         1.850394868         0.459254005
