12
-187.38518821
Al		1.286166474		0.051761676		2.443843167
Al		1.276212268		1.189644898		-0.084155932
Al		-0.322004775		0.832529982		-2.321079709
F		-1.671925704		-0.37363144		-2.215442719
F		2.064770486		-0.350477296		0.755476065
F		0.044875204		1.817044524		-3.797925034
F		-0.360812048		1.931071657		-0.768227035
F		2.586171787		2.422144867		-0.32355464
F		1.261680319		0.040161726		-1.625660373
F		0.442276447		1.540431059		1.61290971
F		2.547625612		0.599654105		3.622662071
F		0.024894947		-1.199001829		2.81557862
