12
-187.38518821
Al		1.286418932		0.051962816		2.443843662
Al		1.27617143		1.189673605		-0.08423257
Al		-0.32221246		0.832297369		-2.320996183
F		-1.672023554		-0.373898104		-2.215207022
F		2.064884507		-0.350360249		0.755443533
F		0.044538934		1.816786129		-3.797937594
F		-0.360937921		1.930962941		-0.768216745
F		2.586050018		2.422230464		-0.323783154
F		1.261601383		0.040096883		-1.625658087
F		0.442343531		1.540504233		1.612885182
F		2.547890675		0.599962554		3.622541004
F		0.025204789		-1.198884184		2.815740751
