12
-187.38518821
Al		1.28667139		0.052163956		2.443844157
Al		1.276130592		1.189702312		-0.084309208
Al		-0.322420145		0.832064756		-2.320912657
F		-1.672121404		-0.374164768		-2.214971325
F		2.064998528		-0.350243202		0.755411001
F		0.044202664		1.816527734		-3.797950154
F		-0.361063794		1.930854225		-0.768206455
F		2.585928249		2.422316061		-0.324011668
F		1.261522447		0.04003204		-1.625655801
F		0.442410615		1.540577407		1.612860654
F		2.548155738		0.600271003		3.622419937
F		0.025514631		-1.198766539		2.815902882
