12
-187.38518821
Al		1.286923848		0.052365096		2.443844652
Al		1.276089754		1.189731019		-0.084385846
Al		-0.32262783		0.831832143		-2.320829131
F		-1.672219254		-0.374431432		-2.214735628
F		2.065112549		-0.350126155		0.755378469
F		0.043866394		1.816269339		-3.797962714
F		-0.361189667		1.930745509		-0.768196165
F		2.58580648		2.422401658		-0.324240182
F		1.261443511		0.039967197		-1.625653515
F		0.442477699		1.540650581		1.612836126
F		2.548420801		0.600579452		3.62229887
F		0.025824473		-1.198648894		2.816065013
