12
-187.38518821
Al		1.287681222		0.052968516		2.443846137
Al		1.27596724		1.18981714		-0.08461576
Al		-0.323250885		0.831134304		-2.320578553
F		-1.672512804		-0.375231424		-2.214028537
F		2.065454612		-0.349775014		0.755280873
F		0.042857584		1.815494154		-3.798000394
F		-0.361567286		1.930419361		-0.768165295
F		2.585441173		2.422658449		-0.324925724
F		1.261206703		0.039772668		-1.625646657
F		0.442678951		1.540870103		1.612762542
F		2.54921599		0.601504799		3.621935669
F		0.026753999		-1.198295959		2.816551406
