12
-187.38518821
Al		1.288438596		0.053571936		2.443847622
Al		1.275844726		1.189903261		-0.084845674
Al		-0.32387394		0.830436465		-2.320327975
F		-1.672806354		-0.376031416		-2.213321446
F		2.065796675		-0.349423873		0.755183277
F		0.041848774		1.814718969		-3.798038074
F		-0.361944905		1.930093213		-0.768134425
F		2.585075866		2.42291524		-0.325611266
F		1.260969895		0.039578139		-1.625639799
F		0.442880203		1.541089625		1.612688958
F		2.550011179		0.602430146		3.621572468
F		0.027683525		-1.197943024		2.817037799
