12
-187.38518821
Al		1.28919597		0.054175356		2.443849107
Al		1.275722212		1.189989382		-0.085075588
Al		-0.324496995		0.829738626		-2.320077397
F		-1.673099904		-0.376831408		-2.212614355
F		2.066138738		-0.349072732		0.755085681
F		0.040839964		1.813943784		-3.798075754
F		-0.362322524		1.929767065		-0.768103555
F		2.584710559		2.423172031		-0.326296808
F		1.260733087		0.03938361		-1.625632941
F		0.443081455		1.541309147		1.612615374
F		2.550806368		0.603355493		3.621209267
F		0.028613051		-1.197590089		2.817524192
