12
-187.38518821
Al		1.289953344		0.054778776		2.443850592
Al		1.275599698		1.190075503		-0.085305502
Al		-0.32512005		0.829040787		-2.319826819
F		-1.673393454		-0.3776314		-2.211907264
F		2.066480801		-0.348721591		0.754988085
F		0.039831154		1.813168599		-3.798113434
F		-0.362700143		1.929440917		-0.768072685
F		2.584345252		2.423428822		-0.32698235
F		1.260496279		0.039189081		-1.625626083
F		0.443282707		1.541528669		1.61254179
F		2.551601557		0.60428084		3.620846066
F		0.029542577		-1.197237154		2.818010585
