12
-187.38518821
Al		1.291973008		0.056387896		2.443854552
Al		1.275272994		1.190305159		-0.085918606
Al		-0.32678153		0.827179883		-2.319158611
F		-1.674176254		-0.379764712		-2.210021688
F		2.067392969		-0.347785215		0.754727829
F		0.037140994		1.811101439		-3.798213914
F		-0.363707127		1.928571189		-0.767990365
F		2.5833711		2.424113598		-0.328810462
F		1.259864791		0.038670337		-1.625607795
F		0.443819379		1.542114061		1.612345566
F		2.553722061		0.606748432		3.61987753
F		0.032021313		-1.196295994		2.819307633
