12
-187.38518821
Al		1.292225466		0.056589036		2.443855047
Al		1.275232156		1.190333866		-0.085995244
Al		-0.326989215		0.82694727		-2.319075085
F		-1.674274104		-0.380031376		-2.209785991
F		2.06750699		-0.347668168		0.754695297
F		0.036804724		1.810843044		-3.798226474
F		-0.363833		1.928462473		-0.767980075
F		2.583249331		2.424199195		-0.329038976
F		1.259785855		0.038605494		-1.625605509
F		0.443886463		1.542187235		1.612321038
F		2.553987124		0.607056881		3.619756463
F		0.032331155		-1.196178349		2.819469764
