12
-187.38518821
Al		1.292477924		0.056790176		2.443855542
Al		1.275191318		1.190362573		-0.086071882
Al		-0.3271969		0.826714657		-2.318991559
F		-1.674371954		-0.38029804		-2.209550294
F		2.067621011		-0.347551121		0.754662765
F		0.036468454		1.810584649		-3.798239034
F		-0.363958873		1.928353757		-0.767969785
F		2.583127562		2.424284792		-0.32926749
F		1.259706919		0.038540651		-1.625603223
F		0.443953547		1.542260409		1.61229651
F		2.554252187		0.60736533		3.619635396
F		0.032640997		-1.196060704		2.819631895
