12
-187.38518821
Al		1.283641894		0.049750276		2.443838217
Al		1.276620648		1.189357828		-0.083389552
Al		-0.319927925		0.834856112		-2.321914969
F		-1.670947204		-0.3709648		-2.217799689
F		2.063630276		-0.351647766		0.755801385
F		0.048237904		1.819628474		-3.797799434
F		-0.359553318		1.932158817		-0.768329935
F		2.587389477		2.421288897		-0.3212695
F		1.262469679		0.040810156		-1.625683233
F		0.441605607		1.539699319		1.61315499
F		2.544974982		0.596569615		3.623872741
F		0.021796527		-1.200178279		2.81395731
