12
-187.38518821
Al		1.293740214		0.057795876		2.443858017
Al		1.274987128		1.190506108		-0.086455072
Al		-0.328235325		0.825551592		-2.318573929
F		-1.674861204		-0.38163136		-2.208371809
F		2.068191116		-0.346965886		0.754500105
F		0.034787104		1.809292674		-3.798301834
F		-0.364588238		1.927810177		-0.767918335
F		2.582518717		2.424712777		-0.33041006
F		1.259312239		0.038216436		-1.625591793
F		0.444288967		1.542626279		1.61217387
F		2.555577502		0.608907575		3.619030061
F		0.034190207		-1.195472479		2.82044255
