12
-187.38518821
Al		1.293992672		0.057997016		2.443858512
Al		1.27494629		1.190534815		-0.08653171
Al		-0.32844301		0.825318979		-2.318490403
F		-1.674959054		-0.381898024		-2.208136112
F		2.068305137		-0.346848839		0.754467573
F		0.034450834		1.809034279		-3.798314394
F		-0.364714111		1.927701461		-0.767908045
F		2.582396948		2.424798374		-0.330638574
F		1.259233303		0.038151593		-1.625589507
F		0.444356051		1.542699453		1.612149342
F		2.555842565		0.609216024		3.618908994
F		0.034500049		-1.195354834		2.820604681
