12
-187.38518821
Al		1.295254962		0.059002716		2.443860987
Al		1.2747421		1.19067835		-0.0869149
Al		-0.329481435		0.824155914		-2.318072773
F		-1.675448304		-0.383231344		-2.206957627
F		2.068875242		-0.346263604		0.754304913
F		0.032769484		1.807742304		-3.798377194
F		-0.365343476		1.927157881		-0.767856595
F		2.581788103		2.425226359		-0.331781144
F		1.258838623		0.037827378		-1.625578077
F		0.444691471		1.543065323		1.612026702
F		2.55716788		0.610758269		3.618303659
F		0.036049259		-1.194766609		2.821415336
