12
-187.38518821
Al		1.29676971		0.060209556		2.443863957
Al		1.274497072		1.190850592		-0.087374728
Al		-0.330727545		0.822760236		-2.317571617
F		-1.676035404		-0.384831328		-2.205543445
F		2.069559368		-0.345561322		0.754109721
F		0.030751864		1.806191934		-3.798452554
F		-0.366098714		1.926505585		-0.767794855
F		2.581057489		2.425739941		-0.333152228
F		1.258365007		0.03743832		-1.625564361
F		0.445093975		1.543504367		1.611879534
F		2.558758258		0.612608963		3.617577257
F		0.037908311		-1.194060739		2.822388122
