12
-187.38518821
Al		1.297022168		0.060410696		2.443864452
Al		1.274456234		1.190879299		-0.087451366
Al		-0.33093523		0.822527623		-2.317488091
F		-1.676133254		-0.385097992		-2.205307748
F		2.069673389		-0.345444275		0.754077189
F		0.030415594		1.805933539		-3.798465114
F		-0.366224587		1.926396869		-0.767784565
F		2.58093572		2.425825538		-0.333380742
F		1.258286071		0.037373477		-1.625562075
F		0.445161059		1.543577541		1.611855006
F		2.559023321		0.612917412		3.61745619
F		0.038218153		-1.193943094		2.822550253
