12
-187.38518821
Al		1.297527084		0.060812976		2.443865442
Al		1.274374558		1.190936713		-0.087604642
Al		-0.3313506		0.822062397		-2.317321039
F		-1.676328954		-0.38563132		-2.204836354
F		2.069901431		-0.345210181		0.754012125
F		0.029743054		1.805416749		-3.798490234
F		-0.366476333		1.926179437		-0.767763985
F		2.580692182		2.425996732		-0.33383777
F		1.258128199		0.037243791		-1.625557503
F		0.445295227		1.543723889		1.61180595
F		2.559553447		0.61353431		3.617214056
F		0.038837837		-1.193707804		2.822874515
