12
-187.38518821
Al		1.298536916		0.061617536		2.443867422
Al		1.274211206		1.191051541		-0.087911194
Al		-0.33218134		0.821131945		-2.316986935
F		-1.676720354		-0.386697976		-2.203893566
F		2.070357515		-0.344741993		0.753881997
F		0.028397974		1.804383169		-3.798540474
F		-0.366979825		1.925744573		-0.767722825
F		2.580205106		2.42633912		-0.334751826
F		1.257812455		0.036984419		-1.625548359
F		0.445563563		1.544016585		1.611707838
F		2.560613699		0.614768106		3.616729788
F		0.040077205		-1.193237224		2.823523039
