12
-187.38518821
Al		1.299799206		0.062623236		2.443869897
Al		1.274007016		1.191195076		-0.088294384
Al		-0.333219765		0.81996888		-2.316569305
F		-1.677209604		-0.388031296		-2.202715081
F		2.07092762		-0.344156758		0.753719337
F		0.026716624		1.803091194		-3.798603274
F		-0.36760919		1.925200993		-0.767671375
F		2.579596261		2.426767105		-0.335894396
F		1.257417775		0.036660204		-1.625536929
F		0.445898983		1.544382455		1.611585198
F		2.561939014		0.616310351		3.616124453
F		0.041626415		-1.192648999		2.824333694
