12
-187.38518821
Al		1.30055658		0.063226656		2.443871382
Al		1.273884502		1.191281197		-0.088524298
Al		-0.33384282		0.819271041		-2.316318727
F		-1.677503154		-0.388831288		-2.20200799
F		2.071269683		-0.343805617		0.753621741
F		0.025707814		1.802316009		-3.798640954
F		-0.367986809		1.924874845		-0.767640505
F		2.579230954		2.427023896		-0.336579938
F		1.257180967		0.036465675		-1.625530071
F		0.446100235		1.544601977		1.611511614
F		2.562734203		0.617235698		3.615761252
F		0.042555941		-1.192296064		2.824820087
