12
-187.38518821
Al		1.302323786		0.064634636		2.443874847
Al		1.273598636		1.191482146		-0.089060764
Al		-0.335296615		0.81764275		-2.315734045
F		-1.678188104		-0.390697936		-2.200358111
F		2.07206783		-0.342986288		0.753394017
F		0.023353924		1.800507244		-3.798728874
F		-0.36886792		1.924113833		-0.767568475
F		2.578378571		2.427623075		-0.338179536
F		1.256628415		0.036011774		-1.625514069
F		0.446569823		1.545114195		1.611339918
F		2.564589644		0.619394841		3.614913783
F		0.044724835		-1.191472549		2.825955004
