12
-187.38518821
Al		1.30308116		0.065238056		2.443876332
Al		1.273476122		1.191568267		-0.089290678
Al		-0.33591967		0.816944911		-2.315483467
F		-1.678481654		-0.391497928		-2.19965102
F		2.072409893		-0.342635147		0.753296421
F		0.022345114		1.799732059		-3.798766554
F		-0.369245539		1.923787685		-0.767537605
F		2.578013264		2.427879866		-0.338865078
F		1.256391607		0.035817245		-1.625507211
F		0.446771075		1.545333717		1.611266334
F		2.565384833		0.620320188		3.614550582
F		0.045654361		-1.191119614		2.826441397
