12
-187.38518821
Al		1.303838534		0.065841476		2.443877817
Al		1.273353608		1.191654388		-0.089520592
Al		-0.336542725		0.816247072		-2.315232889
F		-1.678775204		-0.39229792		-2.198943929
F		2.072751956		-0.342284006		0.753198825
F		0.021336304		1.798956874		-3.798804234
F		-0.369623158		1.923461537		-0.767506735
F		2.577647957		2.428136657		-0.33955062
F		1.256154799		0.035622716		-1.625500353
F		0.446972327		1.545553239		1.61119275
F		2.566180022		0.621245535		3.614187381
F		0.046583887		-1.190766679		2.82692779
