12
-187.38518821
Al		1.304090992		0.066042616		2.443878312
Al		1.27331277		1.191683095		-0.08959723
Al		-0.33675041		0.816014459		-2.315149363
F		-1.678873054		-0.392564584		-2.198708232
F		2.072865977		-0.342166959		0.753166293
F		0.021000034		1.798698479		-3.798816794
F		-0.369749031		1.923352821		-0.767496445
F		2.577526188		2.428222254		-0.339779134
F		1.256075863		0.035557873		-1.625498067
F		0.447039411		1.545626413		1.611168222
F		2.566445085		0.621553984		3.614066314
F		0.046893729		-1.190649034		2.827089921
