12
-187.38518821
Al		1.30434345		0.066243756		2.443878807
Al		1.273271932		1.191711802		-0.089673868
Al		-0.336958095		0.815781846		-2.315065837
F		-1.678970904		-0.392831248		-2.198472535
F		2.072979998		-0.342049912		0.753133761
F		0.020663764		1.798440084		-3.798829354
F		-0.369874904		1.923244105		-0.767486155
F		2.577404419		2.428307851		-0.340007648
F		1.255996927		0.03549303		-1.625495781
F		0.447106495		1.545699587		1.611143694
F		2.566710148		0.621862433		3.613945247
F		0.047203571		-1.190531389		2.827252052
