12
-187.38518821
Al		1.304848366		0.066646036		2.443879797
Al		1.273190256		1.191769216		-0.089827144
Al		-0.337373465		0.81531662		-2.314898785
F		-1.679166604		-0.393364576		-2.198001141
F		2.07320804		-0.341815818		0.753068697
F		0.019991224		1.797923294		-3.798854474
F		-0.37012665		1.923026673		-0.767465575
F		2.577160881		2.428479045		-0.340464676
F		1.255839055		0.035363344		-1.625491209
F		0.447240663		1.545845935		1.611094638
F		2.567240274		0.622479331		3.613703113
F		0.047823255		-1.190296099		2.827576314
