12
-187.38518821
Al		1.30560574		0.067249456		2.443881282
Al		1.273067742		1.191855337		-0.090057058
Al		-0.33799652		0.814618781		-2.314648207
F		-1.679460154		-0.394164568		-2.19729405
F		2.073550103		-0.341464677		0.752971101
F		0.018982414		1.797148109		-3.798892154
F		-0.370504269		1.922700525		-0.767434705
F		2.576795574		2.428735836		-0.341150218
F		1.255602247		0.035168815		-1.625484351
F		0.447441915		1.546065457		1.611021054
F		2.568035463		0.623404678		3.613339912
F		0.048752781		-1.189943164		2.828062707
