12
-187.38518821
Al		1.305858198		0.067450596		2.443881777
Al		1.273026904		1.191884044		-0.090133696
Al		-0.338204205		0.814386168		-2.314564681
F		-1.679558004		-0.394431232		-2.197058353
F		2.073664124		-0.34134763		0.752938569
F		0.018646144		1.796889714		-3.798904714
F		-0.370630142		1.922591809		-0.767424415
F		2.576673805		2.428821433		-0.341378732
F		1.255523311		0.035103972		-1.625482065
F		0.447508999		1.546138631		1.610996526
F		2.568300526		0.623713127		3.613218845
F		0.049062623		-1.189825519		2.828224838
