12
-187.38518821
Al		1.306110656		0.067651736		2.443882272
Al		1.272986066		1.191912751		-0.090210334
Al		-0.33841189		0.814153555		-2.314481155
F		-1.679655854		-0.394697896		-2.196822656
F		2.073778145		-0.341230583		0.752906037
F		0.018309874		1.796631319		-3.798917274
F		-0.370756015		1.922483093		-0.767414125
F		2.576552036		2.42890703		-0.341607246
F		1.255444375		0.035039129		-1.625479779
F		0.447576083		1.546211805		1.610971998
F		2.568565589		0.624021576		3.613097778
F		0.049372465		-1.189707874		2.828386969
