12
-187.38518821
Al		1.306363114		0.067852876		2.443882767
Al		1.272945228		1.191941458		-0.090286972
Al		-0.338619575		0.813920942		-2.314397629
F		-1.679753704		-0.39496456		-2.196586959
F		2.073892166		-0.341113536		0.752873505
F		0.017973604		1.796372924		-3.798929834
F		-0.370881888		1.922374377		-0.767403835
F		2.576430267		2.428992627		-0.34183576
F		1.255365439		0.034974286		-1.625477493
F		0.447643167		1.546284979		1.61094747
F		2.568830652		0.624330025		3.612976711
F		0.049682307		-1.189590229		2.8285491
