12
-187.38518821
Al		1.307120488		0.068456296		2.443884252
Al		1.272822714		1.192027579		-0.090516886
Al		-0.33924263		0.813223103		-2.314147051
F		-1.680047254		-0.395764552		-2.195879868
F		2.074234229		-0.340762395		0.752775909
F		0.016964794		1.795597739		-3.798967514
F		-0.371259507		1.922048229		-0.767372965
F		2.57606496		2.429249418		-0.342521302
F		1.255128631		0.034779757		-1.625470635
F		0.447844419		1.546504501		1.610873886
F		2.569625841		0.625255372		3.61261351
F		0.050611833		-1.189237294		2.829035493
