12
-187.38518821
Al		1.282379604		0.048744576		2.443835742
Al		1.276824838		1.189214293		-0.083006362
Al		-0.3188895		0.836019177		-2.322332599
F		-1.670457954		-0.36963148		-2.218978174
F		2.063060171		-0.352233001		0.755964045
F		0.049919254		1.820920449		-3.797736634
F		-0.358923953		1.932702397		-0.768381385
F		2.587998322		2.420860912		-0.32012693
F		1.262864359		0.041134371		-1.625694663
F		0.441270187		1.539333449		1.61327763
F		2.543649667		0.59502737		3.624478076
F		0.020247317		-1.200766504		2.813146655
