12
-187.38518821
Al		1.278845192		0.045928616		2.443828812
Al		1.27739657		1.188812395		-0.08193343
Al		-0.31598191		0.839275759		-2.323501963
F		-1.669088054		-0.365898184		-2.222277932
F		2.061463877		-0.353871659		0.756419493
F		0.054627034		1.824537979		-3.797560794
F		-0.357161731		1.934224421		-0.768525445
F		2.589703088		2.419662554		-0.316927734
F		1.263969463		0.042042173		-1.625726667
F		0.440331011		1.538309013		1.613621022
F		2.539938785		0.590709084		3.626173014
F		0.015909529		-1.202413534		2.810876821
