12
-187.38518821
Al		1.278087818		0.045325196		2.443827327
Al		1.277519084		1.188726274		-0.081703516
Al		-0.315358855		0.839973598		-2.323752541
F		-1.668794504		-0.365098192		-2.222985023
F		2.061121814		-0.3542228		0.756517089
F		0.055635844		1.825313164		-3.797523114
F		-0.356784112		1.934550569		-0.768556315
F		2.590068395		2.419405763		-0.316242192
F		1.264206271		0.042236702		-1.625733525
F		0.440129759		1.538089491		1.613694606
F		2.539143596		0.589783737		3.626536215
F		0.014980003		-1.202766469		2.810390428
