12
-187.38518821
Al		1.276825528		0.044319496		2.443824852
Al		1.277723274		1.188582739		-0.081320326
Al		-0.31432043		0.841136663		-2.324170171
F		-1.668305254		-0.363764872		-2.224163508
F		2.060551709		-0.354808035		0.756679749
F		0.057317194		1.826605139		-3.797460314
F		-0.356154747		1.935094149		-0.768607765
F		2.59067724		2.418977778		-0.315099622
F		1.264600951		0.042560917		-1.625744955
F		0.439794339		1.537723621		1.613817246
F		2.537818281		0.588241492		3.62714155
F		0.013430793		-1.203354694		2.809579773
