12
-187.38518821
Al		1.276068154		0.043716076		2.443823367
Al		1.277845788		1.188496618		-0.081090412
Al		-0.313697375		0.841834502		-2.324420749
F		-1.668011704		-0.36296488		-2.224870599
F		2.060209646		-0.355159176		0.756777345
F		0.058326004		1.827380324		-3.797422634
F		-0.355777128		1.935420297		-0.768638635
F		2.591042547		2.418720987		-0.31441408
F		1.264837759		0.042755446		-1.625751813
F		0.439593087		1.537504099		1.61389083
F		2.537023092		0.587316145		3.627504751
F		0.012501267		-1.203707629		2.80909338
