12
-187.38518821
Al		1.275815696		0.043514936		2.443822872
Al		1.277886626		1.188467911		-0.081013774
Al		-0.31348969		0.842067115		-2.324504275
F		-1.667913854		-0.362698216		-2.225106296
F		2.060095625		-0.355276223		0.756809877
F		0.058662274		1.827638719		-3.797410074
F		-0.355651255		1.935529013		-0.768648925
F		2.591164316		2.41863539		-0.314185566
F		1.264916695		0.042820289		-1.625754099
F		0.439526003		1.537430925		1.613915358
F		2.536758029		0.587007696		3.627625818
F		0.012191425		-1.203825274		2.808931249
