12
-187.38518821
Al		1.27531078		0.043112656		2.443821882
Al		1.277968302		1.188410497		-0.080860498
Al		-0.31307432		0.842532341		-2.324671327
F		-1.667718154		-0.362164888		-2.22557769
F		2.059867583		-0.355510317		0.756874941
F		0.059334814		1.828155509		-3.797384954
F		-0.355399509		1.935746445		-0.768669505
F		2.591407854		2.418464196		-0.313728538
F		1.265074567		0.042949975		-1.625758671
F		0.439391835		1.537284577		1.613964414
F		2.536227903		0.586390798		3.627867952
F		0.011571741		-1.204060564		2.808606987
