12
-187.38518821
Al		1.274805864		0.042710376		2.443820892
Al		1.278049978		1.188353083		-0.080707222
Al		-0.31265895		0.842997567		-2.324838379
F		-1.667522454		-0.36163156		-2.226049084
F		2.059639541		-0.355744411		0.756940005
F		0.060007354		1.828672299		-3.797359834
F		-0.355147763		1.935963877		-0.768690085
F		2.591651392		2.418293002		-0.31327151
F		1.265232439		0.043079661		-1.625763243
F		0.439257667		1.537138229		1.61401347
F		2.535697777		0.5857739		3.628110086
F		0.010952057		-1.204295854		2.808282725
