12
-187.38518821
Al		1.273796032		0.041905816		2.443818912
Al		1.27821333		1.188238255		-0.08040067
Al		-0.31182821		0.843928019		-2.325172483
F		-1.667131054		-0.360564904		-2.226991872
F		2.059183457		-0.356212599		0.757070133
F		0.061352434		1.829705879		-3.797309594
F		-0.354644271		1.936398741		-0.768731245
F		2.592138468		2.417950614		-0.312357454
F		1.265548183		0.043339033		-1.625772387
F		0.438989331		1.536845533		1.614111582
F		2.534637525		0.584540104		3.628594354
F		0.009712689		-1.204766434		2.807634201
