12
-187.38518821
Al		1.273291116		0.041503536		2.443817922
Al		1.278295006		1.188180841		-0.080247394
Al		-0.31141284		0.844393245		-2.325339535
F		-1.666935354		-0.360031576		-2.227463266
F		2.058955415		-0.356446693		0.757135197
F		0.062024974		1.830222669		-3.797284474
F		-0.354392525		1.936616173		-0.768751825
F		2.592382006		2.41777942		-0.311900426
F		1.265706055		0.043468719		-1.625776959
F		0.438855163		1.536699185		1.614160638
F		2.534107399		0.583923206		3.628836488
F		0.009093005		-1.205001724		2.807309939
