12
-187.38518821
Al		1.272281284		0.040698976		2.443815942
Al		1.278458358		1.188066013		-0.079940842
Al		-0.3105821		0.845323697		-2.325673639
F		-1.666543954		-0.35896492		-2.228406054
F		2.058499331		-0.356914881		0.757265325
F		0.063370054		1.831256249		-3.797234234
F		-0.353889033		1.937051037		-0.768792985
F		2.592869082		2.417437032		-0.31098637
F		1.266021799		0.043728091		-1.625786103
F		0.438586827		1.536406489		1.61425875
F		2.533047147		0.58268941		3.629320756
F		0.007853637		-1.205472304		2.806661415
