12
-187.38518821
Al		1.27152391		0.040095556		2.443814457
Al		1.278580872		1.187979892		-0.079710928
Al		-0.309959045		0.846021536		-2.325924217
F		-1.666250404		-0.358164928		-2.229113145
F		2.058157268		-0.357266022		0.757362921
F		0.064378864		1.832031434		-3.797196554
F		-0.353511414		1.937377185		-0.768823855
F		2.593234389		2.417180241		-0.310300828
F		1.266258607		0.04392262		-1.625792961
F		0.438385575		1.536186967		1.614332334
F		2.532251958		0.581764063		3.629683957
F		0.006924111		-1.205825239		2.806175022
