12
-187.38518821
Al		1.281369772		0.047940016		2.443833762
Al		1.27698819		1.189099465		-0.08269981
Al		-0.31805876		0.836949629		-2.322666703
F		-1.670066554		-0.368564824		-2.219920962
F		2.062604087		-0.352701189		0.756094173
F		0.051264334		1.821954029		-3.797686394
F		-0.358420461		1.933137261		-0.768422545
F		2.588485398		2.420518524		-0.319212874
F		1.263180103		0.041393743		-1.625703807
F		0.441001851		1.539040753		1.613375742
F		2.542589415		0.593793574		3.624962344
F		0.019007949		-1.201237084		2.812498131
