12
-187.38518821
Al		1.26899933		0.038084156		2.443809507
Al		1.278989252		1.187692822		-0.078944548
Al		-0.307882195		0.848347666		-2.326759477
F		-1.665271904		-0.355498288		-2.231470115
F		2.057017058		-0.358436492		0.757688241
F		0.067741564		1.834615384		-3.797070954
F		-0.352252684		1.938464345		-0.768926755
F		2.594452079		2.416324271		-0.308015688
F		1.267047967		0.04457105		-1.625815821
F		0.437714735		1.535455227		1.614577614
F		2.529601328		0.578679573		3.630894627
F		0.003825691		-1.207001689		2.804553712
