12
-187.38518821
Al		1.267484582		0.036877316		2.443806537
Al		1.27923428		1.18752058		-0.07848472
Al		-0.306636085		0.849743344		-2.327260633
F		-1.664684804		-0.353898304		-2.232884297
F		2.056332932		-0.359138774		0.757883433
F		0.069759184		1.836165754		-3.796995594
F		-0.351497446		1.939116641		-0.768988495
F		2.595182693		2.415810689		-0.306644604
F		1.267521583		0.044960108		-1.625829537
F		0.437312231		1.535016183		1.614724782
F		2.52801095		0.576828879		3.631621029
F		0.001966639		-1.207707559		2.803580926
