12
-187.38518821
Al		1.266727208		0.036273896		2.443805052
Al		1.279356794		1.187434459		-0.078254806
Al		-0.30601303		0.850441183		-2.327511211
F		-1.664391254		-0.353098312		-2.233591388
F		2.055990869		-0.359489915		0.757981029
F		0.070767994		1.836940939		-3.796957914
F		-0.351119827		1.939442789		-0.769019365
F		2.595548		2.415553898		-0.305959062
F		1.267758391		0.045154637		-1.625836395
F		0.437110979		1.534796661		1.614798366
F		2.527215761		0.575903532		3.63198423
F		0.001037113		-1.208060494		2.803094533
