12
-187.38518821
Al		1.26521246		0.035067056		2.443802082
Al		1.279601822		1.187262217		-0.077794978
Al		-0.30476692		0.851836861		-2.328012367
F		-1.663804154		-0.351498328		-2.23500557
F		2.055306743		-0.360192197		0.758176221
F		0.072785614		1.838491309		-3.796882554
F		-0.350364589		1.940095085		-0.769081105
F		2.596278614		2.415040316		-0.304587978
F		1.268232007		0.045543695		-1.625850111
F		0.436708475		1.534357617		1.614945534
F		2.525625383		0.574052838		3.632710632
F		-0.000821939		-1.208766364		2.802121747
