12
-187.38518821
Al		1.280864856		0.047537736		2.443832772
Al		1.277069866		1.189042051		-0.082546534
Al		-0.31764339		0.837414855		-2.322833755
F		-1.669870854		-0.368031496		-2.220392356
F		2.062376045		-0.352935283		0.756159237
F		0.051936874		1.822470819		-3.797661274
F		-0.358168715		1.933354693		-0.768443125
F		2.588728936		2.42034733		-0.318755846
F		1.263337975		0.041523429		-1.625708379
F		0.440867683		1.538894405		1.613424798
F		2.542059289		0.593176676		3.625204478
F		0.018388265		-1.201472374		2.812173869
