12
-187.38518821
Al		1.26395017		0.034061356		2.443799607
Al		1.279806012		1.187118682		-0.077411788
Al		-0.303728495		0.852999926		-2.328429997
F		-1.663314904		-0.350165008		-2.236184055
F		2.054736638		-0.360777432		0.758338881
F		0.074466964		1.839783284		-3.796819754
F		-0.349735224		1.940638665		-0.769132555
F		2.596887459		2.414612331		-0.303445408
F		1.268626687		0.04586791		-1.625861541
F		0.436373055		1.533991747		1.615068174
F		2.524300068		0.572510593		3.633315967
F		-0.002371149		-1.209354589		2.801311092
