12
-187.38518821
Al		1.262940338		0.033256796		2.443797627
Al		1.279969364		1.187003854		-0.077105236
Al		-0.302897755		0.853930378		-2.328764101
F		-1.662923504		-0.349098352		-2.237126843
F		2.054280554		-0.36124562		0.758469009
F		0.075812044		1.840816864		-3.796769514
F		-0.349231732		1.941073529		-0.769173715
F		2.597374535		2.414269943		-0.302531352
F		1.268942431		0.046127282		-1.625870685
F		0.436104719		1.533699051		1.615166286
F		2.523239816		0.571276797		3.633800235
F		-0.003610517		-1.209825169		2.800662568
