12
-187.38518821
Al		1.262182964		0.032653376		2.443796142
Al		1.280091878		1.186917733		-0.076875322
Al		-0.3022747		0.854628217		-2.329014679
F		-1.662629954		-0.34829836		-2.237833934
F		2.053938491		-0.361596761		0.758566605
F		0.076820854		1.841592049		-3.796731834
F		-0.348854113		1.941399677		-0.769204585
F		2.597739842		2.414013152		-0.30184581
F		1.269179239		0.046321811		-1.625877543
F		0.435903467		1.533479529		1.61523987
F		2.522444627		0.57035145		3.634163436
F		-0.004540043		-1.210178104		2.800176175
