12
-187.38518821
Al		1.261678048		0.032251096		2.443795152
Al		1.280173554		1.186860319		-0.076722046
Al		-0.30185933		0.855093443		-2.329181731
F		-1.662434254		-0.347765032		-2.238305328
F		2.053710449		-0.361830855		0.758631669
F		0.077493394		1.842108839		-3.796706714
F		-0.348602367		1.941617109		-0.769225165
F		2.59798338		2.413841958		-0.301388782
F		1.269337111		0.046451497		-1.625882115
F		0.435769299		1.533333181		1.615288926
F		2.521914501		0.569734552		3.63440557
F		-0.005159727		-1.210413394		2.799851913
