12
-187.38518821
Al		1.260668216		0.031446536		2.443793172
Al		1.280336906		1.186745491		-0.076415494
Al		-0.30102859		0.856023895		-2.329515835
F		-1.662042854		-0.346698376		-2.239248116
F		2.053254365		-0.362299043		0.758761797
F		0.078838474		1.843142419		-3.796656474
F		-0.348098875		1.942051973		-0.769266325
F		2.598470456		2.41349957		-0.300474726
F		1.269652855		0.046710869		-1.625891259
F		0.435500963		1.533040485		1.615387038
F		2.520854249		0.568500756		3.634889838
F		-0.006399095		-1.210883974		2.799203389
