12
-187.38518821
Al		1.259910842		0.030843116		2.443791687
Al		1.28045942		1.18665937		-0.07618558
Al		-0.300405535		0.856721734		-2.329766413
F		-1.661749304		-0.345898384		-2.239955207
F		2.052912302		-0.362650184		0.758859393
F		0.079847284		1.843917604		-3.796618794
F		-0.347721256		1.942378121		-0.769297195
F		2.598835763		2.413242779		-0.299789184
F		1.269889663		0.046905398		-1.625898117
F		0.435299711		1.532820963		1.615460622
F		2.52005906		0.567575409		3.635253039
F		-0.007328621		-1.211236909		2.798716996
