12
-187.38518821
Al		1.259658384		0.030641976		2.443791192
Al		1.280500258		1.186630663		-0.076108942
Al		-0.30019785		0.856954347		-2.329849939
F		-1.661651454		-0.34563172		-2.240190904
F		2.052798281		-0.362767231		0.758891925
F		0.080183554		1.844175999		-3.796606234
F		-0.347595383		1.942486837		-0.769307485
F		2.598957532		2.413157182		-0.29956067
F		1.269968599		0.046970241		-1.625900403
F		0.435232627		1.532747789		1.61548515
F		2.519793997		0.56726696		3.635374106
F		-0.007638463		-1.211354554		2.798554865
