12
-187.38518821
Al		1.259153468		0.030239696		2.443790202
Al		1.280581934		1.186573249		-0.075955666
Al		-0.29978248		0.857419573		-2.330016991
F		-1.661455754		-0.345098392		-2.240662298
F		2.052570239		-0.363001325		0.758956989
F		0.080856094		1.844692789		-3.796581114
F		-0.347343637		1.942704269		-0.769328065
F		2.59920107		2.412985988		-0.299103642
F		1.270126471		0.047099927		-1.625904975
F		0.435098459		1.532601441		1.615534206
F		2.519263871		0.566650062		3.63561624
F		-0.008258147		-1.211589844		2.798230603
