      12
SCF Done            -185.77729729
Al            0.275528972        -2.328040611        -1.827140861
Al            2.034701130        -0.540947256        -0.807449624
Al           -0.335181206         0.309109903        -1.802045083
F             3.625117288        -0.180022616        -0.031593023
F            -0.166831974        -4.032156893        -2.229568636
F             2.101025638        -1.811793276        -2.287932589
F             1.529485495         0.656214339        -2.264446420
F            -1.483236422         1.652301531        -2.175473911
F            -1.142593486        -1.274951852        -0.995749769
F            -0.116855974        -1.016257509        -3.218736181
F             0.503747996         0.397519998        -0.041460002
F             1.075288134        -2.070487610        -0.064946173
