12
Properties=species:S:1:pos:R:3:forces:R:3 energy=-185.62493767 pbc="F F F"
Al    0.46946117200000004    -2.297021911    -2.262723961    0.622448    0.250334    -1.269192
Al    2.2514713299999998    -0.486728556    -1.2297957240000001    0.503289    0.129287    -1.338262
Al    -0.149177006    0.374364603    -2.2373021829999997    0.663814    0.07171    -1.270892
F    3.5560392879999996    -0.196074916    -0.025745623    -0.029252    -0.007644    0.091376
F    -0.166655974    -3.977856193    -2.1835792360000004    -0.042721    -0.021323    0.08357
F    1.9089688379999998    -1.742442176    -2.078138789    -0.467909    0.152792    0.539457
F    1.388338595    0.505727339    -2.05674442    -0.350864    -0.352625    0.534648
F    -1.459018422    1.602784231    -2.1304725110000002    -0.047396    -0.001138    0.083762
F    -1.345198286    -1.323782452    -0.7948581690000001    -0.516084    -0.124174    0.489609
F    -0.111354974    -1.017768609    -2.926031281    -0.013715    -0.010124    0.730074
F    0.41581119600000005    0.465176298    0.225897398    -0.213352    0.183362    0.665085
F    1.027158134    -2.17472731    0.200775427    -0.108257    -0.270458    0.660766
