12
Properties=species:S:1:pos:R:3:forces:R:3 energy=-185.77216688 pbc="F F F"
Al    0.37351987200000003    -2.2985779109999998    -2.056437761    0.00149    0.004387    0.008817
Al    1.9957127300000002    -0.5506112559999999    -0.726065324    0.023447    0.019384    -0.060505
Al    -0.40088880600000004    0.294620203    -1.660053583    -0.012829    0.002575    0.060633
F    3.598736488    -0.268666216    0.06097987700000001    0.01007    0.00241    -0.021833
F    0.05491512600000001    -4.041147193    -2.4324203360000003    -0.00106    -0.000261    0.002223
F    2.2556244380000003    -2.009017676    -2.1763969889999997    0.01827    -0.024003    0.021419
F    1.4382564949999999    0.21709073899999998    -2.45852122    0.007739    -0.006615    0.008589
F    -1.531806722    1.663359431    -1.993523011    -0.009127    -0.0024    0.019539
F    -1.027581486    -1.264219852    -0.906370669    -0.029519    -0.003799    -0.029845
F    -0.32311167399999996    -1.032483609    -3.284201381    0.042774    0.002132    -0.019684
F    0.6544128960000001    0.876152598    -0.016052502    -0.013826    -0.004778    -0.007138
F    0.813693134    -1.8270291099999998    -0.09634637300000001    -0.03743    0.010968    0.017786
