12
Properties=species:S:1:pos:R:3:forces:R:3 energy=-181.53959418 pbc="F F F"
Al    0.27722576200000004    1.17052686    -1.890365636    7.275418    1.722315    7.862773
Al    -0.5706466139999999    1.046123653    1.194647136    0.999796    0.226362    0.53895
Al    -2.521953119    0.566048789    -1.8654684419999998    11.457613    2.520376    2.316136
F    -3.626862561    0.290238408    -3.806281508    -2.497987    -0.647807    -5.659802
F    -1.6412641570000002    -0.5390898009999999    -1.8368801449999999    -3.918299    -0.070688    -0.156279
F    -2.176268587    1.9364144030000001    -1.884094583    -3.596677    -1.558857    -0.127896
F    -1.9660753249999998    0.731353739    0.502939424    -1.254027    -0.27975    -0.457796
F    0.4454388269999999    1.227861743    -0.790299611    -3.416918    -0.883935    -7.627615
F    -0.298960175    2.815278597    2.032186747    -0.029942    -0.659057    -0.256655
F    0.400523615    -0.42130375800000003    2.093914345    -0.297309    0.578084    -0.280245
F    -4.5049658919999995    0.16569717    -0.386010565    -3.842347    -0.773898    2.962574
F    0.400476127    1.182163237    -2.6768505289999998    -0.879322    -0.173143    0.885853
