      12
SCF Done            -181.53959418
Al           -0.181482238         1.074951860        -1.703683636
Al           -0.420321614         1.080582653         1.298002136
Al           -2.782931119         0.511717789        -1.756756442
F            -3.602266561         0.295312408        -3.818984508
F            -1.475417157        -0.591842801        -1.848874145
F            -2.046898587         2.052451403        -1.899307583
F            -2.070532325         0.707557739         0.438922424
F             0.524008827         1.251392743        -0.446827611
F            -0.304638175         2.721099597         1.985491747
F             0.356842615        -0.339637758         2.043865345
F            -4.387237892         0.189414170        -0.476549565
F             0.716651127         1.240435237        -3.204275529
