12
Properties=species:S:1:pos:R:3:forces:R:3 energy=-186.55387267 pbc="F F F"
Al    0.37506099299999995    -0.767460658    1.5806521390000001    -0.177102    1.089385    1.11963
Al    2.105888365    -1.7153446719999998    -0.470003997    1.505852    -0.457375    -0.445745
Al    -0.674466781    -1.7510518579999999    -0.875050543    -1.304131    -0.493457    -0.855109
F    3.409822607    -0.656454393    -1.0548007799999999    0.681821    1.04271    -0.409681
F    -1.783598954    -0.723151388    -1.8113881969999999    -0.562619    1.026725    -0.590972
F    2.741942695    -3.373712694    -0.508191343    0.110278    -1.241686    0.073614
F    -1.2312850659999999    -3.424740602    -1.08701802    -0.095434    -1.24433    0.043645
F    1.807973297    -1.363237393    1.0612062020000002    0.58693    -0.281928    0.751607
F    0.803603664    -1.6120789819999999    -1.286525565    0.130987    0.444477    -0.938322
F    0.126081652    -1.073341463    3.3166810890000002    -0.161919    -0.556743    1.160541
F    0.395732071    0.993436899    1.2835242359999999    0.055    0.971571    -0.463185
F    -0.8346799679999999    -1.397176383    0.6762196140000001    -0.769663    -0.29935    0.553977
