12
Properties=species:S:1:pos:R:3:forces:R:3 energy=-175.84556995 pbc="F F F"
Al    0.283223593    -0.289009358    2.047061139    -0.987392    6.771756    6.180725
Al    1.782075565    -1.630744272    -0.421569097    -8.057943    3.277304    7.067281
Al    -1.170262981    -1.855598358    -0.9646809430000001    5.622029    3.452982    9.060182
F    3.670831907    -0.34061759300000005    -1.1976283799999998    2.577544    2.259354    -1.368454
F    -1.790046654    -0.563548088    -1.865606797    -2.136045    2.198817    -2.055134
F    2.8304679950000002    -3.802814294    -0.49840224299999997    1.391199    -4.222757    -0.213053
F    -1.201749766    -3.648587202    -1.05813492    -1.165965    -4.255588    -0.585581
F    2.076151797    -1.553684793    0.8430368020000001    3.33553    -2.721957    -7.469821
F    1.516730164    -1.511177282    -1.3635192649999999    -0.16695    -0.470153    1.187435
F    0.150095552    -1.092873163    3.1700174889999997    1.352287    6.222556    -9.83101
F    0.40149497100000003    0.863121699    1.272498736    -0.767766    -9.734724    6.128341
F    -1.132269068    -1.5266483830000002    0.780747014    -0.99653    -2.777589    -8.100911
