12
-186.35103317
Al		-1.693613029		2.560791263		-1.237928168
Al		-0.530916788		0.002518586		-2.34792602
Al		-2.20018982		-0.340980824		-0.516196159
F		-0.757694826		3.685669329		-0.161512691
F		-3.017464156		3.17623937		-2.315353333
F		-1.377773112		-1.675099067		-1.720137492
F		-2.528847824		1.446746828		0.057683495
F		-3.247299002		-1.302784976		0.602424466
F		0.621372184		-0.516247204		-3.642711446
F		-0.339920547		1.8967806		-2.346826206
F		-2.455583603		0.474231465		-2.303426498
F		-0.303398467		0.158644116		-0.400468126
