12
-186.35103317
Al		-1.691605269		2.561199771		-1.2401313
Al		-0.530790336		0.003095838		-2.348067924
Al		-2.199960344		-0.341485656		-0.516444819
F		-0.757769782		3.685654077		-0.161430439
F		-3.017538152		3.176224314		-2.315272137
F		-1.377913576		-1.675127647		-1.71998336
F		-2.529665808		1.445914176		0.058949755
F		-3.247303594		-1.302699956		0.602430838
F		0.621381868		-0.516331188		-3.642723402
F		-0.341219591		1.897182508		-2.34576943
F		-2.455781159		0.474191269		-2.303209718
F		-0.303616211		0.158599812		-0.400229194
