12
-186.35103317
Al		-1.691103329		2.561301898		-1.240682083
Al		-0.530758723		0.003240151		-2.3481034
Al		-2.199902975		-0.341611864		-0.516506984
F		-0.757788521		3.685650264		-0.161409876
F		-3.017556651		3.17622055		-2.315251838
F		-1.377948692		-1.675134792		-1.719944827
F		-2.529870304		1.445706013		0.05926632
F		-3.247304742		-1.302678701		0.602432431
F		0.621384289		-0.516352184		-3.642726391
F		-0.341544352		1.897282985		-2.345505236
F		-2.455830548		0.47418122		-2.303155523
F		-0.303670647		0.158588736		-0.400169461
