12
-186.35103317
Al		-1.690601389		2.561404025		-1.241232866
Al		-0.53072711		0.003384464		-2.348138876
Al		-2.199845606		-0.341738072		-0.516569149
F		-0.75780726		3.685646451		-0.161389313
F		-3.01757515		3.176216786		-2.315231539
F		-1.377983808		-1.675141937		-1.719906294
F		-2.5300748		1.44549785		0.059582885
F		-3.24730589		-1.302657446		0.602434024
F		0.62138671		-0.51637318		-3.64272938
F		-0.341869113		1.897383462		-2.345241042
F		-2.455879937		0.474171171		-2.303101328
F		-0.303725083		0.15857766		-0.400109728
