12
-186.35103317
Al		-1.688091689		2.56191466		-1.243986781
Al		-0.530569045		0.004106029		-2.348316256
Al		-2.199558761		-0.342369112		-0.516879974
F		-0.757900955		3.685627386		-0.161286498
F		-3.017667645		3.176197966		-2.315130044
F		-1.378159388		-1.675177662		-1.719713629
F		-2.53109728		1.444457035		0.06116571
F		-3.24731163		-1.302551171		0.602441989
F		0.621398815		-0.51647816		-3.642744325
F		-0.343492918		1.897885847		-2.343920072
F		-2.456126882		0.474120926		-2.302830353
F		-0.303997263		0.15852228		-0.399811063
