12
-186.35103317
Al		-1.687589749		2.562016787		-1.244537564
Al		-0.530537432		0.004250342		-2.348351732
Al		-2.199501392		-0.34249532		-0.516942139
F		-0.757919694		3.685623573		-0.161265935
F		-3.017686144		3.176194202		-2.315109745
F		-1.378194504		-1.675184807		-1.719675096
F		-2.531301776		1.444248872		0.061482275
F		-3.247312778		-1.302529916		0.602443582
F		0.621401236		-0.516499156		-3.642747314
F		-0.343817679		1.897986324		-2.343655878
F		-2.456176271		0.474110877		-2.302776158
F		-0.304051699		0.158511204		-0.39975133
