12
-186.35103317
Al		-1.687087809		2.562118914		-1.245088347
Al		-0.530505819		0.004394655		-2.348387208
Al		-2.199444023		-0.342621528		-0.517004304
F		-0.757938433		3.68561976		-0.161245372
F		-3.017704643		3.176190438		-2.315089446
F		-1.37822962		-1.675191952		-1.719636563
F		-2.531506272		1.444040709		0.06179884
F		-3.247313926		-1.302508661		0.602445175
F		0.621403657		-0.516520152		-3.642750303
F		-0.34414244		1.898086801		-2.343391684
F		-2.45622566		0.474100828		-2.302721963
F		-0.304106135		0.158500128		-0.399691597
