12
-186.35103317
Al		-1.686585869		2.562221041		-1.24563913
Al		-0.530474206		0.004538968		-2.348422684
Al		-2.199386654		-0.342747736		-0.517066469
F		-0.757957172		3.685615947		-0.161224809
F		-3.017723142		3.176186674		-2.315069147
F		-1.378264736		-1.675199097		-1.71959803
F		-2.531710768		1.443832546		0.062115405
F		-3.247315074		-1.302487406		0.602446768
F		0.621406078		-0.516541148		-3.642753292
F		-0.344467201		1.898187278		-2.34312749
F		-2.456275049		0.474090779		-2.302667768
F		-0.304160571		0.158489052		-0.399631864
