12
-186.35103317
Al		-1.684578109		2.562629549		-1.247842262
Al		-0.530347754		0.00511622		-2.348564588
Al		-2.199157178		-0.343252568		-0.517315129
F		-0.758032128		3.685600695		-0.161142557
F		-3.017797138		3.176171618		-2.314987951
F		-1.3784052		-1.675227677		-1.719443898
F		-2.532528752		1.442999894		0.063381665
F		-3.247319666		-1.302402386		0.60245314
F		0.621415762		-0.516625132		-3.642765248
F		-0.345766245		1.898589186		-2.342070714
F		-2.456472605		0.474050583		-2.302450988
F		-0.304378315		0.158444748		-0.399392932
