12
-186.35103317
Al		-1.682570349		2.563038057		-1.250045394
Al		-0.530221302		0.005693472		-2.348706492
Al		-2.198927702		-0.3437574		-0.517563789
F		-0.758107084		3.685585443		-0.161060305
F		-3.017871134		3.176156562		-2.314906755
F		-1.378545664		-1.675256257		-1.719289766
F		-2.533346736		1.442167242		0.064647925
F		-3.247324258		-1.302317366		0.602459512
F		0.621425446		-0.516709116		-3.642777204
F		-0.347065289		1.898991094		-2.341013938
F		-2.456670161		0.474010387		-2.302234208
F		-0.304596059		0.158400444		-0.399154
