12
-186.35103317
Al		-1.680060649		2.563548692		-1.252799309
Al		-0.530063237		0.006415037		-2.348883872
Al		-2.198640857		-0.34438844		-0.517874614
F		-0.758200779		3.685566378		-0.16095749
F		-3.017963629		3.176137742		-2.31480526
F		-1.378721244		-1.675291982		-1.719097101
F		-2.534369216		1.441126427		0.06623075
F		-3.247329998		-1.302211091		0.602467477
F		0.621437551		-0.516814096		-3.642792149
F		-0.348689094		1.899493479		-2.339692968
F		-2.456917106		0.473960142		-2.301963233
F		-0.304868239		0.158345064		-0.398855335
