12
-186.35103317
Al		-1.678052889		2.5639572		-1.255002441
Al		-0.529936785		0.006992289		-2.349025776
Al		-2.198411381		-0.344893272		-0.518123274
F		-0.758275735		3.685551126		-0.160875238
F		-3.018037625		3.176122686		-2.314724064
F		-1.378861708		-1.675320562		-1.718942969
F		-2.5351872		1.440293775		0.06749701
F		-3.24733459		-1.302126071		0.602473849
F		0.621447235		-0.51689808		-3.642804105
F		-0.349988138		1.899895387		-2.338636192
F		-2.457114662		0.473919946		-2.301746453
F		-0.305085983		0.15830076		-0.398616403
