12
-186.35103317
Al		-1.676547069		2.564263581		-1.25665479
Al		-0.529841946		0.007425228		-2.349132204
Al		-2.198239274		-0.345271896		-0.518309769
F		-0.758331952		3.685539687		-0.160813549
F		-3.018093122		3.176111394		-2.314663167
F		-1.378967056		-1.675341997		-1.71882737
F		-2.535800688		1.439669286		0.068446705
F		-3.247338034		-1.302062306		0.602478628
F		0.621454498		-0.516961068		-3.642813072
F		-0.350962421		1.900196818		-2.33784361
F		-2.457262829		0.473889799		-2.301583868
F		-0.305249291		0.158267532		-0.398437204
