12
-186.35103317
Al		-1.676045129		2.564365708		-1.257205573
Al		-0.529810333		0.007569541		-2.34916768
Al		-2.198181905		-0.345398104		-0.518371934
F		-0.758350691		3.685535874		-0.160792986
F		-3.018111621		3.17610763		-2.314642868
F		-1.379002172		-1.675349142		-1.718788837
F		-2.536005184		1.439461123		0.06876327
F		-3.247339182		-1.302041051		0.602480221
F		0.621456919		-0.516982064		-3.642816061
F		-0.351287182		1.900297295		-2.337579416
F		-2.457312218		0.47387975		-2.301529673
F		-0.305303727		0.158256456		-0.398377471
