12
-186.35103317
Al		-1.675543189		2.564467835		-1.257756356
Al		-0.52977872		0.007713854		-2.349203156
Al		-2.198124536		-0.345524312		-0.518434099
F		-0.75836943		3.685532061		-0.160772423
F		-3.01813012		3.176103866		-2.314622569
F		-1.379037288		-1.675356287		-1.718750304
F		-2.53620968		1.43925296		0.069079835
F		-3.24734033		-1.302019796		0.602481814
F		0.62145934		-0.51700306		-3.64281905
F		-0.351611943		1.900397772		-2.337315222
F		-2.457361607		0.473869701		-2.301475478
F		-0.305358163		0.15824538		-0.398317738
