12
-186.35103317
Al		-1.673535429		2.564876343		-1.259959488
Al		-0.529652268		0.008291106		-2.34934506
Al		-2.19789506		-0.346029144		-0.518682759
F		-0.758444386		3.685516809		-0.160690171
F		-3.018204116		3.17608881		-2.314541373
F		-1.379177752		-1.675384867		-1.718596172
F		-2.537027664		1.438420308		0.070346095
F		-3.247344922		-1.301934776		0.602488186
F		0.621469024		-0.517087044		-3.642831006
F		-0.352910987		1.90079968		-2.336258446
F		-2.457559163		0.473829505		-2.301258698
F		-0.305575907		0.158201076		-0.398078806
