12
-186.35103317
Al		-1.671025729		2.565386978		-1.262713403
Al		-0.529494203		0.009012671		-2.34952244
Al		-2.197608215		-0.346660184		-0.518993584
F		-0.758538081		3.685497744		-0.160587356
F		-3.018296611		3.17606999		-2.314439878
F		-1.379353332		-1.675420592		-1.718403507
F		-2.538050144		1.437379493		0.07192892
F		-3.247350662		-1.301828501		0.602496151
F		0.621481129		-0.517192024		-3.642845951
F		-0.354534792		1.901302065		-2.334937476
F		-2.457806108		0.47377926		-2.300987723
F		-0.305848087		0.158145696		-0.397780141
