12
-186.35103317
Al		-1.697628549		2.559974247		-1.233521904
Al		-0.531169692		0.001364082		-2.347642212
Al		-2.200648772		-0.33997116		-0.515698839
F		-0.757544914		3.685699833		-0.161677195
F		-3.017316164		3.176269482		-2.315515725
F		-1.377492184		-1.675041907		-1.720445756
F		-2.527211856		1.448412132		0.055150975
F		-3.247289818		-1.302955016		0.602411722
F		0.621352816		-0.516079236		-3.642687534
F		-0.337322459		1.895976784		-2.348939758
F		-2.455188491		0.474311857		-2.303860058
F		-0.302962979		0.158732724		-0.40094599
