12
-186.35103317
Al		-1.669017969		2.565795486		-1.264916535
Al		-0.529367751		0.009589923		-2.349664344
Al		-2.197378739		-0.347165016		-0.519242244
F		-0.758613037		3.685482492		-0.160505104
F		-3.018370607		3.176054934		-2.314358682
F		-1.379493796		-1.675449172		-1.718249375
F		-2.538868128		1.436546841		0.07319518
F		-3.247355254		-1.301743481		0.602502523
F		0.621490813		-0.517276008		-3.642857907
F		-0.355833836		1.901703973		-2.3338807
F		-2.458003664		0.473739064		-2.300770943
F		-0.306065831		0.158101392		-0.397541209
