12
-186.35103317
Al		-1.668014089		2.56599974		-1.266018101
Al		-0.529304525		0.009878549		-2.349735296
Al		-2.197264001		-0.347417432		-0.519366574
F		-0.758650515		3.685474866		-0.160463978
F		-3.018407605		3.176047406		-2.314318084
F		-1.379564028		-1.675463462		-1.718172309
F		-2.53927712		1.436130515		0.07382831
F		-3.24735755		-1.301700971		0.602505709
F		0.621495655		-0.517318		-3.642863885
F		-0.356483358		1.901904927		-2.333352312
F		-2.458102442		0.473718966		-2.300662553
F		-0.306174703		0.15807924		-0.397421743
