12
-186.35103317
Al		-1.666508269		2.566306121		-1.26767045
Al		-0.529209686		0.010311488		-2.349841724
Al		-2.197091894		-0.347796056		-0.519553069
F		-0.758706732		3.685463427		-0.160402289
F		-3.018463102		3.176036114		-2.314257187
F		-1.379669376		-1.675484897		-1.71805671
F		-2.539890608		1.435506026		0.074778005
F		-3.247360994		-1.301637206		0.602510488
F		0.621502918		-0.517380988		-3.642872852
F		-0.357457641		1.902206358		-2.33255973
F		-2.458250609		0.473688819		-2.300499968
F		-0.306338011		0.158046012		-0.397242544
