12
-186.35103317
Al		-1.666006329		2.566408248		-1.268221233
Al		-0.529178073		0.010455801		-2.3498772
Al		-2.197034525		-0.347922264		-0.519615234
F		-0.758725471		3.685459614		-0.160381726
F		-3.018481601		3.17603235		-2.314236888
F		-1.379704492		-1.675492042		-1.718018177
F		-2.540095104		1.435297863		0.07509457
F		-3.247362142		-1.301615951		0.602512081
F		0.621505339		-0.517401984		-3.642875841
F		-0.357782402		1.902306835		-2.332295536
F		-2.458299998		0.47367877		-2.300445773
F		-0.306392447		0.158034936		-0.397182811
