12
-186.35103317
Al		-1.663496629		2.566918883		-1.270975148
Al		-0.529020008		0.011177366		-2.35005458
Al		-2.19674768		-0.348553304		-0.519926059
F		-0.758819166		3.685440549		-0.160278911
F		-3.018574096		3.17601353		-2.314135393
F		-1.379880072		-1.675527767		-1.717825512
F		-2.541117584		1.434257048		0.076677395
F		-3.247367882		-1.301509676		0.602520046
F		0.621517444		-0.517506964		-3.642890786
F		-0.359406207		1.90280922		-2.330974566
F		-2.458546943		0.473628525		-2.300174798
F		-0.306664627		0.157979556		-0.396884146
