12
-186.35103317
Al		-1.662994689		2.56702101		-1.271525931
Al		-0.528988395		0.011321679		-2.350090056
Al		-2.196690311		-0.348679512		-0.519988224
F		-0.758837905		3.685436736		-0.160258348
F		-3.018592595		3.176009766		-2.314115094
F		-1.379915188		-1.675534912		-1.717786979
F		-2.54132208		1.434048885		0.07699396
F		-3.24736903		-1.301488421		0.602521639
F		0.621519865		-0.51752796		-3.642893775
F		-0.359730968		1.902909697		-2.330710372
F		-2.458596332		0.473618476		-2.300120603
F		-0.306719063		0.15796848		-0.396824413
