12
-186.35103317
Al		-1.660986929		2.567429518		-1.273729063
Al		-0.528861943		0.011898931		-2.35023196
Al		-2.196460835		-0.349184344		-0.520236884
F		-0.758912861		3.685421484		-0.160176096
F		-3.018666591		3.17599471		-2.314033898
F		-1.380055652		-1.675563492		-1.717632847
F		-2.542140064		1.433216233		0.07826022
F		-3.247373622		-1.301403401		0.602528011
F		0.621529549		-0.517611944		-3.642905731
F		-0.361030012		1.903311605		-2.329653596
F		-2.458793888		0.47357828		-2.299903823
F		-0.306936807		0.157924176		-0.396585481
