12
-186.35103317
Al		-1.660484989		2.567531645		-1.274279846
Al		-0.52883033		0.012043244		-2.350267436
Al		-2.196403466		-0.349310552		-0.520299049
F		-0.7589316		3.685417671		-0.160155533
F		-3.01868509		3.175990946		-2.314013599
F		-1.380090768		-1.675570637		-1.717594314
F		-2.54234456		1.43300807		0.078576785
F		-3.24737477		-1.301382146		0.602529604
F		0.62153197		-0.51763294		-3.64290872
F		-0.361354773		1.903412082		-2.329389402
F		-2.458843277		0.473568231		-2.299849628
F		-0.306991243		0.1579131		-0.396525748
