12
-186.35103317
Al		-1.659983049		2.567633772		-1.274830629
Al		-0.528798717		0.012187557		-2.350302912
Al		-2.196346097		-0.34943676		-0.520361214
F		-0.758950339		3.685413858		-0.16013497
F		-3.018703589		3.175987182		-2.3139933
F		-1.380125884		-1.675577782		-1.717555781
F		-2.542549056		1.432799907		0.07889335
F		-3.247375918		-1.301360891		0.602531197
F		0.621534391		-0.517653936		-3.642911709
F		-0.361679534		1.903512559		-2.329125208
F		-2.458892666		0.473558182		-2.299795433
F		-0.307045679		0.157902024		-0.396466015
