12
-186.35103317
Al		-1.659481109		2.567735899		-1.275381412
Al		-0.528767104		0.01233187		-2.350338388
Al		-2.196288728		-0.349562968		-0.520423379
F		-0.758969078		3.685410045		-0.160114407
F		-3.018722088		3.175983418		-2.313973001
F		-1.380161		-1.675584927		-1.717517248
F		-2.542753552		1.432591744		0.079209915
F		-3.247377066		-1.301339636		0.60253279
F		0.621536812		-0.517674932		-3.642914698
F		-0.362004295		1.903613036		-2.328861014
F		-2.458942055		0.473548133		-2.299741238
F		-0.307100115		0.157890948		-0.396406282
