12
-186.35103317
Al		-1.658979169		2.567838026		-1.275932195
Al		-0.528735491		0.012476183		-2.350373864
Al		-2.196231359		-0.349689176		-0.520485544
F		-0.758987817		3.685406232		-0.160093844
F		-3.018740587		3.175979654		-2.313952702
F		-1.380196116		-1.675592072		-1.717478715
F		-2.542958048		1.432383581		0.07952648
F		-3.247378214		-1.301318381		0.602534383
F		0.621539233		-0.517695928		-3.642917687
F		-0.362329056		1.903713513		-2.32859682
F		-2.458991444		0.473538084		-2.299687043
F		-0.307154551		0.157879872		-0.396346549
