12
-186.35103317
Al		-1.657473349		2.568144407		-1.277584544
Al		-0.528640652		0.012909122		-2.350480292
Al		-2.196059252		-0.3500678		-0.520672039
F		-0.759044034		3.685394793		-0.160032155
F		-3.018796084		3.175968362		-2.313891805
F		-1.380301464		-1.675613507		-1.717363116
F		-2.543571536		1.431759092		0.080476175
F		-3.247381658		-1.301254616		0.602539162
F		0.621546496		-0.517758916		-3.642926654
F		-0.363303339		1.904014944		-2.327804238
F		-2.459139611		0.473507937		-2.299524458
F		-0.307317859		0.157846644		-0.39616735
