12
-186.35103317
Al		-1.655967529		2.568450788		-1.279236893
Al		-0.528545813		0.013342061		-2.35058672
Al		-2.195887145		-0.350446424		-0.520858534
F		-0.759100251		3.685383354		-0.159970466
F		-3.018851581		3.17595707		-2.313830908
F		-1.380406812		-1.675634942		-1.717247517
F		-2.544185024		1.431134603		0.08142587
F		-3.247385102		-1.301190851		0.602543941
F		0.621553759		-0.517821904		-3.642935621
F		-0.364277622		1.904316375		-2.327011656
F		-2.459287778		0.47347779		-2.299361873
F		-0.307481167		0.157813416		-0.395988151
