12
-186.35103317
Al		-1.653457829		2.568961423		-1.281990808
Al		-0.528387748		0.014063626		-2.3507641
Al		-2.1956003		-0.351077464		-0.521169359
F		-0.759193946		3.685364289		-0.159867651
F		-3.018944076		3.17593825		-2.313729413
F		-1.380582392		-1.675670667		-1.717054852
F		-2.545207504		1.430093788		0.083008695
F		-3.247390842		-1.301084576		0.602551906
F		0.621565864		-0.517926884		-3.642950566
F		-0.365901427		1.90481876		-2.325690686
F		-2.459534723		0.473427545		-2.299090898
F		-0.307753347		0.157758036		-0.395689486
