12
-186.35103317
Al		-1.652955889		2.56906355		-1.282541591
Al		-0.528356135		0.014207939		-2.350799576
Al		-2.195542931		-0.351203672		-0.521231524
F		-0.759212685		3.685360476		-0.159847088
F		-3.018962575		3.175934486		-2.313709114
F		-1.380617508		-1.675677812		-1.717016319
F		-2.545412		1.429885625		0.08332526
F		-3.24739199		-1.301063321		0.602553499
F		0.621568285		-0.51794788		-3.642953555
F		-0.366226188		1.904919237		-2.325426492
F		-2.459584112		0.473417496		-2.299036703
F		-0.307807783		0.15774696		-0.395629753
