12
-186.35103317
Al		-1.652453949		2.569165677		-1.283092374
Al		-0.528324522		0.014352252		-2.350835052
Al		-2.195485562		-0.35132988		-0.521293689
F		-0.759231424		3.685356663		-0.159826525
F		-3.018981074		3.175930722		-2.313688815
F		-1.380652624		-1.675684957		-1.716977786
F		-2.545616496		1.429677462		0.083641825
F		-3.247393138		-1.301042066		0.602555092
F		0.621570706		-0.517968876		-3.642956544
F		-0.366550949		1.905019714		-2.325162298
F		-2.459633501		0.473407447		-2.298982508
F		-0.307862219		0.157735884		-0.39557002
