12
-186.35103317
Al		-1.651952009		2.569267804		-1.283643157
Al		-0.528292909		0.014496565		-2.350870528
Al		-2.195428193		-0.351456088		-0.521355854
F		-0.759250163		3.68535285		-0.159805962
F		-3.018999573		3.175926958		-2.313668516
F		-1.38068774		-1.675692102		-1.716939253
F		-2.545820992		1.429469299		0.08395839
F		-3.247394286		-1.301020811		0.602556685
F		0.621573127		-0.517989872		-3.642959533
F		-0.36687571		1.905120191		-2.324898104
F		-2.45968289		0.473397398		-2.298928313
F		-0.307916655		0.157724808		-0.395510287
