12
-186.35103317
Al		-1.650948129		2.569472058		-1.284744723
Al		-0.528229683		0.014785191		-2.35094148
Al		-2.195313455		-0.351708504		-0.521480184
F		-0.759287641		3.685345224		-0.159764836
F		-3.019036571		3.17591943		-2.313627918
F		-1.380757972		-1.675706392		-1.716862187
F		-2.546229984		1.429052973		0.08459152
F		-3.247396582		-1.300978301		0.602559871
F		0.621577969		-0.518031864		-3.642965511
F		-0.367525232		1.905321145		-2.324369716
F		-2.459781668		0.4733773		-2.298819923
F		-0.308025527		0.157702656		-0.395390821
