12
-186.35103317
Al		-1.701142129		2.559259358		-1.229666423
Al		-0.531390983		0.000353891		-2.34739388
Al		-2.201050355		-0.339087704		-0.515263684
F		-0.757413741		3.685726524		-0.161821136
F		-3.017186671		3.17629583		-2.315657818
F		-1.377246372		-1.674991892		-1.720715487
F		-2.525780384		1.449869273		0.05293502
F		-3.247281782		-1.303103801		0.602400571
F		0.621335869		-0.515932264		-3.642666611
F		-0.335049132		1.895273445		-2.350789116
F		-2.454842768		0.4743822		-2.304239423
F		-0.302581927		0.158810256		-0.401364121
