12
-186.35103317
Al		-1.705659589		2.558340215		-1.224709376
Al		-0.5316755		-0.000944926		-2.347074596
Al		-2.201566676		-0.337951832		-0.514704199
F		-0.75724509		3.685760841		-0.162006203
F		-3.01702018		3.176329706		-2.315840509
F		-1.376930328		-1.674927587		-1.721062284
F		-2.52393992		1.45174274		0.050085935
F		-3.24727145		-1.303295096		0.602386234
F		0.62131408		-0.5157433		-3.64263971
F		-0.332126283		1.894369152		-2.353166862
F		-2.454398267		0.474472641		-2.304727178
F		-0.302092003		0.15890994		-0.401901718
