12
-186.35103317
Al		-1.709173169		2.557625326		-1.220853895
Al		-0.531896791		-0.001955117		-2.346826264
Al		-2.201968259		-0.337068376		-0.514269044
F		-0.757113917		3.685787532		-0.162150144
F		-3.016890687		3.176356054		-2.315982602
F		-1.376684516		-1.674877572		-1.721332015
F		-2.522508448		1.453199881		0.04786998
F		-3.247263414		-1.303443881		0.602375083
F		0.621297133		-0.515596328		-3.642618787
F		-0.329852956		1.893665813		-2.35501622
F		-2.454052544		0.474542984		-2.305106543
F		-0.301710951		0.158987472		-0.402319849
