12
-186.35103317
Al		-1.710177049		2.557421072		-1.219752329
Al		-0.531960017		-0.002243743		-2.346755312
Al		-2.202082997		-0.33681596		-0.514144714
F		-0.757076439		3.685795158		-0.16219127
F		-3.016853689		3.176363582		-2.3160232
F		-1.376614284		-1.674863282		-1.721409081
F		-2.522099456		1.453616207		0.04723685
F		-3.247261118		-1.303486391		0.602371897
F		0.621292291		-0.515554336		-3.642612809
F		-0.329203434		1.893464859		-2.355544608
F		-2.453953766		0.474563082		-2.305214933
F		-0.301602079		0.159009624		-0.402439315
