12
-186.35103317
Al		-1.711682869		2.557114691		-1.21809998
Al		-0.532054856		-0.002676682		-2.346648884
Al		-2.202255104		-0.336437336		-0.513958219
F		-0.757020222		3.685806597		-0.162252959
F		-3.016798192		3.176374874		-2.316084097
F		-1.376508936		-1.674841847		-1.72152468
F		-2.521485968		1.454240696		0.046287155
F		-3.247257674		-1.303550156		0.602367118
F		0.621285028		-0.515491348		-3.642603842
F		-0.328229151		1.893163428		-2.35633719
F		-2.453805599		0.474593229		-2.305377518
F		-0.301438771		0.159042852		-0.402618514
