12
-186.35103317
Al		-1.718710029		2.555684913		-1.210389018
Al		-0.532497438		-0.004697064		-2.34615222
Al		-2.20305827		-0.334670424		-0.513087909
F		-0.756757876		3.685859979		-0.162540841
F		-3.016539206		3.17642757		-2.316368283
F		-1.376017312		-1.674741817		-1.722064142
F		-2.518623024		1.457154978		0.041855245
F		-3.247241602		-1.303847726		0.602344816
F		0.621251134		-0.515197404		-3.642561996
F		-0.323682497		1.89175675		-2.360035906
F		-2.453114153		0.474733915		-2.306136248
F		-0.300676667		0.159197916		-0.403454776
