12
-186.35103317
Al		-1.720717789		2.555276405		-1.208185886
Al		-0.53262389		-0.005274316		-2.346010316
Al		-2.203287746		-0.334165592		-0.512839249
F		-0.75668292		3.685875231		-0.162623093
F		-3.01646521		3.176442626		-2.316449479
F		-1.375876848		-1.674713237		-1.722218274
F		-2.51780504		1.45798763		0.040588985
F		-3.24723701		-1.303932746		0.602338444
F		0.62124145		-0.51511342		-3.64255004
F		-0.322383453		1.891354842		-2.361092682
F		-2.452916597		0.474774111		-2.306353028
F		-0.300458923		0.15924222		-0.403693708
