12
-186.35103317
Al		-1.721219729		2.555174278		-1.207635103
Al		-0.532655503		-0.005418629		-2.34597484
Al		-2.203345115		-0.334039384		-0.512777084
F		-0.756664181		3.685879044		-0.162643656
F		-3.016446711		3.17644639		-2.316469778
F		-1.375841732		-1.674706092		-1.722256807
F		-2.517600544		1.458195793		0.04027242
F		-3.247235862		-1.303954001		0.602336851
F		0.621239029		-0.515092424		-3.642547051
F		-0.322058692		1.891254365		-2.361356876
F		-2.452867208		0.47478416		-2.306407223
F		-0.300404487		0.159253296		-0.403753441
