12
-186.35103317
Al		-1.723227489		2.55476577		-1.205431971
Al		-0.532781955		-0.005995881		-2.345832936
Al		-2.203574591		-0.333534552		-0.512528424
F		-0.756589225		3.685894296		-0.162725908
F		-3.016372715		3.176461446		-2.316550974
F		-1.375701268		-1.674677512		-1.722410939
F		-2.51678256		1.459028445		0.03900616
F		-3.24723127		-1.304039021		0.602330479
F		0.621229345		-0.51500844		-3.642535095
F		-0.320759648		1.890852457		-2.362413652
F		-2.452669652		0.474824356		-2.306624003
F		-0.300186743		0.1592976		-0.403992373
