12
-186.35103317
Al		-1.724231369		2.554561516		-1.204330405
Al		-0.532845181		-0.006284507		-2.345761984
Al		-2.203689329		-0.333282136		-0.512404094
F		-0.756551747		3.685901922		-0.162767034
F		-3.016335717		3.176468974		-2.316591572
F		-1.375631036		-1.674663222		-1.722488005
F		-2.516373568		1.459444771		0.03837303
F		-3.247228974		-1.304081531		0.602327293
F		0.621224503		-0.514966448		-3.642529117
F		-0.320110126		1.890651503		-2.36294204
F		-2.452570874		0.474844454		-2.306732393
F		-0.300077871		0.159319752		-0.404111839
