12
-186.35103317
Al		-1.725737189		2.554255135		-1.202678056
Al		-0.53294002		-0.006717446		-2.345655556
Al		-2.203861436		-0.332903512		-0.512217599
F		-0.75649553		3.685913361		-0.162828723
F		-3.01628022		3.176480266		-2.316652469
F		-1.375525688		-1.674641787		-1.722603604
F		-2.51576008		1.46006926		0.037423335
F		-3.24722553		-1.304145296		0.602322514
F		0.62121724		-0.51490346		-3.64252015
F		-0.319135843		1.890350072		-2.363734622
F		-2.452422707		0.474874601		-2.306894978
F		-0.299914563		0.15935298		-0.404291038
