12
-186.35103317
Al		-1.727744949		2.553846627		-1.200474924
Al		-0.533066472		-0.007294698		-2.345513652
Al		-2.204090912		-0.33239868		-0.511968939
F		-0.756420574		3.685928613		-0.162910975
F		-3.016206224		3.176495322		-2.316733665
F		-1.375385224		-1.674613207		-1.722757736
F		-2.514942096		1.460901912		0.036157075
F		-3.247220938		-1.304230316		0.602316142
F		0.621207556		-0.514819476		-3.642508194
F		-0.317836799		1.889948164		-2.364791398
F		-2.452225151		0.474914797		-2.307111758
F		-0.299696819		0.159397284		-0.40452997
