12
-186.35103317
Al		-1.728246889		2.5537445		-1.199924141
Al		-0.533098085		-0.007439011		-2.345478176
Al		-2.204148281		-0.332272472		-0.511906774
F		-0.756401835		3.685932426		-0.162931538
F		-3.016187725		3.176499086		-2.316753964
F		-1.375350108		-1.674606062		-1.722796269
F		-2.5147376		1.461110075		0.03584051
F		-3.24721979		-1.304251571		0.602314549
F		0.621205135		-0.51479848		-3.642505205
F		-0.317512038		1.889847687		-2.365055592
F		-2.452175762		0.474924846		-2.307165953
F		-0.299642383		0.15940836		-0.404589703
