12
-186.35103317
Al		-1.731258529		2.553131738		-1.196619443
Al		-0.533287763		-0.008304889		-2.34526532
Al		-2.204492495		-0.331515224		-0.511533784
F		-0.756289401		3.685955304		-0.163054916
F		-3.016076731		3.17652167		-2.316875758
F		-1.375139412		-1.674563192		-1.723027467
F		-2.513510624		1.462359053		0.03394112
F		-3.247212902		-1.304379101		0.602304991
F		0.621190609		-0.514672504		-3.642487271
F		-0.315563472		1.889244825		-2.366640756
F		-2.451879428		0.47498514		-2.307491123
F		-0.299315767		0.159474816		-0.404948101
