12
-186.35103317
Al		-1.732262409		2.552927484		-1.195517877
Al		-0.533350989		-0.008593515		-2.345194368
Al		-2.204607233		-0.331262808		-0.511409454
F		-0.756251923		3.68596293		-0.163096042
F		-3.016039733		3.176529198		-2.316916356
F		-1.37506918		-1.674548902		-1.723104533
F		-2.513101632		1.462775379		0.03330799
F		-3.247210606		-1.304421611		0.602301805
F		0.621185767		-0.514630512		-3.642481293
F		-0.31491395		1.889043871		-2.367169144
F		-2.45178065		0.475005238		-2.307599513
F		-0.299206895		0.159496968		-0.405067567
