12
-186.35103317
Al		-1.733768229		2.552621103		-1.193865528
Al		-0.533445828		-0.009026454		-2.34508794
Al		-2.20477934		-0.330884184		-0.511222959
F		-0.756195706		3.685974369		-0.163157731
F		-3.015984236		3.17654049		-2.316977253
F		-1.374963832		-1.674527467		-1.723220132
F		-2.512488144		1.463399868		0.032358295
F		-3.247207162		-1.304485376		0.602297026
F		0.621178504		-0.514567524		-3.642472326
F		-0.313939667		1.88874244		-2.367961726
F		-2.451632483		0.475035385		-2.307762098
F		-0.299043587		0.159530196		-0.405246766
