12
-186.35103317
Al		-1.704153769		2.558646596		-1.226361725
Al		-0.531580661		-0.000511987		-2.347181024
Al		-2.201394569		-0.338330456		-0.514890694
F		-0.757301307		3.685749402		-0.161944514
F		-3.017075677		3.176318414		-2.315779612
F		-1.377035676		-1.674949022		-1.720946685
F		-2.524553408		1.451118251		0.05103563
F		-3.247274894		-1.303231331		0.602391013
F		0.621321343		-0.515806288		-3.642648677
F		-0.333100566		1.894670583		-2.35237428
F		-2.454546434		0.474442494		-2.304564593
F		-0.302255311		0.158876712		-0.401722519
