12
-186.35103317
Al		-1.736277929		2.552110468		-1.191111613
Al		-0.533603893		-0.009748019		-2.34491056
Al		-2.205066185		-0.330253144		-0.510912134
F		-0.756102011		3.685993434		-0.163260546
F		-3.015891741		3.17655931		-2.317078748
F		-1.374788252		-1.674491742		-1.723412797
F		-2.511465664		1.464440683		0.03077547
F		-3.247201422		-1.304591651		0.602289061
F		0.621166399		-0.514462544		-3.642457381
F		-0.312315862		1.888240055		-2.369282696
F		-2.451385538		0.47508563		-2.308033073
F		-0.298771407		0.159585576		-0.405545431
