12
-186.35103317
Al		-1.739289569		2.551497706		-1.187806915
Al		-0.533793571		-0.010613897		-2.344697704
Al		-2.205410399		-0.329495896		-0.510539144
F		-0.755989577		3.686016312		-0.163383924
F		-3.015780747		3.176581894		-2.317200542
F		-1.374577556		-1.674448872		-1.723643995
F		-2.510238688		1.465689661		0.02887608
F		-3.247194534		-1.304719181		0.602279503
F		0.621151873		-0.514336568		-3.642439447
F		-0.310367296		1.887637193		-2.37086786
F		-2.451089204		0.475145924		-2.308358243
F		-0.298444791		0.159652032		-0.405903829
