12
-186.35103317
Al		-1.739791509		2.551395579		-1.187256132
Al		-0.533825184		-0.01075821		-2.344662228
Al		-2.205467768		-0.329369688		-0.510476979
F		-0.755970838		3.686020125		-0.163404487
F		-3.015762248		3.176585658		-2.317220841
F		-1.37454244		-1.674441727		-1.723682528
F		-2.510034192		1.465897824		0.028559515
F		-3.247193386		-1.304740436		0.60227791
F		0.621149452		-0.514315572		-3.642436458
F		-0.310042535		1.887536716		-2.371132054
F		-2.451039815		0.475155973		-2.308412438
F		-0.298390355		0.159663108		-0.405963562
