12
-186.35103317
Al		-1.704655709		2.558544469		-1.225810942
Al		-0.531612274		-0.0006563		-2.347145548
Al		-2.201451938		-0.338204248		-0.514828529
F		-0.757282568		3.685753215		-0.161965077
F		-3.017057178		3.176322178		-2.315799911
F		-1.37700056		-1.674941877		-1.720985218
F		-2.524348912		1.451326414		0.050719065
F		-3.247273746		-1.303252586		0.60238942
F		0.621318922		-0.515785292		-3.642645688
F		-0.332775805		1.894570106		-2.352638474
F		-2.454497045		0.474452543		-2.304618788
F		-0.302200875		0.158887788		-0.401782252
