12
-186.35103317
Al		-1.741297329		2.551089198		-1.185603783
Al		-0.533920023		-0.011191149		-2.3445558
Al		-2.205639875		-0.328991064		-0.510290484
F		-0.755914621		3.686031564		-0.163466176
F		-3.015706751		3.17659695		-2.317281738
F		-1.374437092		-1.674420292		-1.723798127
F		-2.509420704		1.466522313		0.02760982
F		-3.247189942		-1.304804201		0.602273131
F		0.621142189		-0.514252584		-3.642427491
F		-0.309068252		1.887235285		-2.371924636
F		-2.450891648		0.47518612		-2.308575023
F		-0.298227047		0.159696336		-0.406142761
