12
-186.35103317
Al		-1.742301209		2.550884944		-1.184502217
Al		-0.533983249		-0.011479775		-2.344484848
Al		-2.205754613		-0.328738648		-0.510166154
F		-0.755877143		3.68603919		-0.163507302
F		-3.015669753		3.176604478		-2.317322336
F		-1.37436686		-1.674406002		-1.723875193
F		-2.509011712		1.466938639		0.02697669
F		-3.247187646		-1.304846711		0.602269945
F		0.621137347		-0.514210592		-3.642421513
F		-0.30841873		1.887034331		-2.372453024
F		-2.45079287		0.475206218		-2.308683413
F		-0.298118175		0.159718488		-0.406262227
