12
-186.35103317
Al		-1.742803149		2.550782817		-1.183951434
Al		-0.534014862		-0.011624088		-2.344449372
Al		-2.205811982		-0.32861244		-0.510103989
F		-0.755858404		3.686043003		-0.163527865
F		-3.015651254		3.176608242		-2.317342635
F		-1.374331744		-1.674398857		-1.723913726
F		-2.508807216		1.467146802		0.026660125
F		-3.247186498		-1.304867966		0.602268352
F		0.621134926		-0.514189596		-3.642418524
F		-0.308093969		1.886933854		-2.372717218
F		-2.450743481		0.475216267		-2.308737608
F		-0.298063739		0.159729564		-0.40632196
