12
-186.35103317
Al		-1.744810909		2.550374309		-1.181748302
Al		-0.534141314		-0.01220134		-2.344307468
Al		-2.206041458		-0.328107608		-0.509855329
F		-0.755783448		3.686058255		-0.163610117
F		-3.015577258		3.176623298		-2.317423831
F		-1.37419128		-1.674370277		-1.724067858
F		-2.507989232		1.467979454		0.025393865
F		-3.247181906		-1.304952986		0.60226198
F		0.621125242		-0.514105612		-3.642406568
F		-0.306794925		1.886531946		-2.373773994
F		-2.450545925		0.475256463		-2.308954388
F		-0.297845995		0.159773868		-0.406560892
