12
-186.35103317
Al		-1.745312849		2.550272182		-1.181197519
Al		-0.534172927		-0.012345653		-2.344271992
Al		-2.206098827		-0.3279814		-0.509793164
F		-0.755764709		3.686062068		-0.16363068
F		-3.015558759		3.176627062		-2.31744413
F		-1.374156164		-1.674363132		-1.724106391
F		-2.507784736		1.468187617		0.0250773
F		-3.247180758		-1.304974241		0.602260387
F		0.621122821		-0.514084616		-3.642403579
F		-0.306470164		1.886431469		-2.374038188
F		-2.450496536		0.475266512		-2.309008583
F		-0.297791559		0.159784944		-0.406620625
