12
-186.35103317
Al		-1.746316729		2.550067928		-1.180095953
Al		-0.534236153		-0.012634279		-2.34420104
Al		-2.206213565		-0.327728984		-0.509668834
F		-0.755727231		3.686069694		-0.163671806
F		-3.015521761		3.17663459		-2.317484728
F		-1.374085932		-1.674348842		-1.724183457
F		-2.507375744		1.468603943		0.02444417
F		-3.247178462		-1.305016751		0.602257201
F		0.621117979		-0.514042624		-3.642397601
F		-0.305820642		1.886230515		-2.374566576
F		-2.450397758		0.47528661		-2.309116973
F		-0.297682687		0.159807096		-0.406740091
