12
-186.35103317
Al		-1.747320609		2.549863674		-1.178994387
Al		-0.534299379		-0.012922905		-2.344130088
Al		-2.206328303		-0.327476568		-0.509544504
F		-0.755689753		3.68607732		-0.163712932
F		-3.015484763		3.176642118		-2.317525326
F		-1.3740157		-1.674334552		-1.724260523
F		-2.506966752		1.469020269		0.02381104
F		-3.247176166		-1.305059261		0.602254015
F		0.621113137		-0.514000632		-3.642391623
F		-0.30517112		1.886029561		-2.375094964
F		-2.45029898		0.475306708		-2.309225363
F		-0.297573815		0.159829248		-0.406859557
