12
Properties=species:S:1:pos:R:3:forces:R:3 energy=-186.31919408 pbc="F F F"
Al    -1.581217861    2.25943102    -1.309513091    0.112474    0.070339    0.039184
Al    -0.28733135499999995    -0.308832194    -2.274783574    0.536349    0.093428    -0.140047
Al    -2.252072176    -0.6380891179999999    -0.709678437    -0.644144    -0.104076    0.201767
F    -0.779393941    3.406953836    -0.091943457    0.098641    0.119317    0.142384
F    -2.7632898470000002    2.958117593    -2.549557992    -0.211795    0.09787    -0.22078
F    -1.28340128    -1.926967827    -1.789042961    -0.002577    -0.141017    -0.035986
F    -2.613895162    1.198329883    -0.133954438    -0.095433    -0.059662    0.129114
F    -3.453937763    -1.5480754319999999    0.290998653    -0.108462    -0.082123    0.132941
F    0.988496198    -0.781274941    -3.434914704    0.164994    -0.045776    -0.18571
F    -0.09836172500000001    1.632531514    -2.243757431    0.111673    -0.017471    -0.065684
F    -2.2478615570000002    0.24663455100000004    -2.492257628    -0.249774    0.032176    -0.121435
F    -0.35219536799999995    -0.125088761    -0.308472808    0.288053    0.036994    0.124247
