      12
SCF Done            -167.29175168
Al           -1.686345789         2.562140685        -1.244166006
Al           -0.391761770        -0.007209796        -2.206215756
Al           -2.356600986        -0.334626712        -0.640858649
F            -0.867919680         3.662253911        -0.038176573
F            -2.851543570         3.210784866        -2.495454319
F            -1.370763888        -1.673376637        -1.729861754
F            -2.702005680         1.453506710        -0.078051615
F            -3.541560530        -1.292478546         0.349649364
F             0.901064690        -0.529256460        -3.376753600
F            -0.186364293         1.885681922        -2.188131322
F            -2.335592957         0.499422551        -2.435354828
F            -0.440019563         0.130055180        -0.251073988
