12
-187.38518821
Al		1.181116462		0.167341716		2.497498637
Al		1.360246		1.0919022		-0.1272022
Al		-0.420612385		0.954182564		-2.268586673
F		-1.608944604		-0.441754544		-2.251310877
F		2.055081792		-0.369550354		0.862892713
F		0.107423384		1.753203654		-3.828324394
F		-0.321376226		1.958154081		-0.669692295
F		2.558585353		2.455108509		-0.304871844
F		1.191547023		0.054655528		-1.706628377
F		0.415864471		1.595987023		1.524034702
F		2.60175513		0.527877419		3.593781809
F		0.082168759		-1.272505259		2.780740386
