12
-187.38518821
Al		1.35876838		-0.039851683		2.403589273
Al		1.2141875		1.2622483		-0.0499936
Al		-0.242961162		0.74698925		-2.362495573
F		-1.716764572		-0.316006153		-2.194315306
F		2.069243553		-0.339040153		0.675710552
F		0.006201839		1.87125509		-3.774817933
F		-0.38730501		1.913423453		-0.842380149
F		2.609844957		2.395325012		-0.331968143
F		1.316214039		0.030879905		-1.564990254
F		0.460441717		1.496971129		1.680166839
F		2.500533669		0.645928876		3.647288837
F		-0.025652025		-1.146757052		2.837734371
