12
-187.38518821
Al		1.38414728		-0.069450683		2.390173673
Al		1.193322		1.2865834		-0.0389638
Al		-0.217582362		0.71739025		-2.375911173
F		-1.732167372		-0.298042053		-2.186173206
F		2.071266653		-0.334681553		0.648970252
F		-0.008258261		1.88811969		-3.767174133
F		-0.39672341		1.907033353		-0.867049849
F		2.617167757		2.386784512		-0.335839043
F		1.334023639		0.027483405		-1.544756254
F		0.466809917		1.482826029		1.702471439
F		2.486073569		0.662793476		3.654932637
F		-0.041054925		-1.128792952		2.845876471
