12
-187.38518821
Al		1.40952618		-0.099049683		2.376758073
Al		1.1724565		1.3109185		-0.027934
Al		-0.192203562		0.68779125		-2.389326773
F		-1.747570172		-0.280077953		-2.178031106
F		2.073289753		-0.330322953		0.622229952
F		-0.022718361		1.90498429		-3.759530333
F		-0.40614181		1.900643253		-0.891719549
F		2.624490557		2.378244012		-0.339709943
F		1.351833239		0.024086905		-1.524522254
F		0.473178117		1.468680929		1.724776039
F		2.471613469		0.679658076		3.662576437
F		-0.056457825		-1.110828852		2.854018571
