12
-187.38518821
Al		1.130358662		0.226539716		2.524329837
Al		1.401977		1.0432318		-0.1492618
Al		-0.471369985		1.013380564		-2.241755473
F		-1.578139004		-0.477682744		-2.267595077
F		2.051035592		-0.378267554		0.916373313
F		0.136343584		1.719474454		-3.843611994
F		-0.302539426		1.970934281		-0.620352895
F		2.543939753		2.472189509		-0.297130044
F		1.155927823		0.061448528		-1.747096377
F		0.403128071		1.624277223		1.479425502
F		2.63067533		0.494148219		3.578494209
F		0.112974559		-1.308433459		2.764456186
