12
-187.38518821
Al		1.20649498		0.137742317		2.484082873
Al		1.3393805		1.1162377		-0.1161724
Al		-0.395233962		0.92458325		-2.282001973
F		-1.624347772		-0.423790753		-2.243167906
F		2.057104953		-0.365191753		0.836152352
F		0.092962439		1.77006749		-3.820680733
F		-0.33079461		1.951764053		-0.694361949
F		2.565908157		2.446568012		-0.308742743
F		1.209356439		0.051258905		-1.686394254
F		0.422232517		1.581841729		1.546339239
F		2.587294269		0.544741276		3.601426037
F		0.066765375		-1.254541652		2.788881771
