12
-187.38518821
Al		1.10497938		0.256138317		2.537745273
Al		1.4228425		1.0188973		-0.1602916
Al		-0.496749162		1.04297925		-2.228339573
F		-1.562736572		-0.495647153		-2.275736306
F		2.049012553		-0.382626153		0.943113552
F		0.150802839		1.70260909		-3.851255933
F		-0.29312101		1.977324453		-0.595683149
F		2.536616957		2.480730012		-0.293259143
F		1.138118039		0.064844905		-1.767330254
F		0.396759717		1.638422129		1.457120839
F		2.645134669		0.477282876		3.570850837
F		0.128376975		-1.326398052		2.756313371
