12
-187.38518821
Al		1.53642068		-0.247044683		2.309680073
Al		1.068129		1.432594		0.027215
Al		-0.065309562		0.53979625		-2.456404773
F		-1.824584172		-0.190257453		-2.137320606
F		2.083405253		-0.308529953		0.488528452
F		-0.095018861		1.98930729		-3.721311333
F		-0.45323381		1.868692753		-1.015068049
F		2.661104557		2.335541512		-0.359064443
F		1.440881239		0.007104405		-1.423352254
F		0.505019117		1.397955429		1.836299039
F		2.399312969		0.763981076		3.700795437
F		-0.133472325		-1.021008352		2.894729071
12
-187.38518821
Al		1.51104178		-0.217445683		2.323095673
Al		1.0889945		1.4082589		0.0161852
Al		-0.090688362		0.56939525		-2.442989173
F		-1.809181372		-0.208221553		-2.145462706
F		2.081382153		-0.312888553		0.515268752
F		-0.080558761		1.97244269		-3.728955133
F		-0.44381541		1.875082853		-0.990398349
F		2.653781757		2.344082012		-0.355193543
F		1.423071639		0.010500905		-1.443586254
F		0.498650917		1.412100529		1.813994439
F		2.413773069		0.747116476		3.693151637
F		-0.118069425		-1.038972452		2.886586971
12
-187.38518821
Al		1.48566288		-0.187846683		2.336511273
Al		1.10986		1.3839238		0.0051554
Al		-0.116067162		0.59899425		-2.429573573
F		-1.793778572		-0.226185653		-2.153604806
F		2.079359053		-0.317247153		0.542009052
F		-0.066098661		1.95557809		-3.736598933
F		-0.43439701		1.881472953		-0.965728649
F		2.646458957		2.352622512		-0.351322643
F		1.405262039		0.013897405		-1.463820254
F		0.492282717		1.426245629		1.791689839
F		2.428233169		0.730251876		3.685507837
F		-0.102666525		-1.056936552		2.878444871
12
-187.38518821
Al		1.46028398		-0.158247683		2.349926873
Al		1.1307255		1.3595887		-0.0058744
Al		-0.141445962		0.62859325		-2.416157973
F		-1.778375772		-0.244149753		-2.161746906
F		2.077335953		-0.321605753		0.568749352
F		-0.051638561		1.93871349		-3.744242733
F		-0.42497861		1.887863053		-0.941058949
F		2.639136157		2.361163012		-0.347451743
F		1.387452439		0.017293905		-1.484054254
F		0.485914517		1.440390729		1.769385239
F		2.442693269		0.713387276		3.677864037
F		-0.087263625		-1.074900652		2.870302771
12
-187.38518821
Al		1.43490508		-0.128648683		2.363342473
Al		1.151591		1.3352536		-0.0169042
Al		-0.166824762		0.65819225		-2.402742373
F		-1.762972972		-0.262113853		-2.169889006
F		2.075312853		-0.325964353		0.595489652
F		-0.037178461		1.92184889		-3.751886533
F		-0.41556021		1.894253153		-0.916389249
F		2.631813357		2.369703512		-0.343580843
F		1.369642839		0.020690405		-1.504288254
F		0.479546317		1.454535829		1.747080639
F		2.457153369		0.696522676		3.670220237
F		-0.071860725		-1.092864752		2.862160671
12
-187.38518821
Al		1.40952618		-0.099049683		2.376758073
Al		1.1724565		1.3109185		-0.027934
Al		-0.192203562		0.68779125		-2.389326773
F		-1.747570172		-0.280077953		-2.178031106
F		2.073289753		-0.330322953		0.622229952
F		-0.022718361		1.90498429		-3.759530333
F		-0.40614181		1.900643253		-0.891719549
F		2.624490557		2.378244012		-0.339709943
F		1.351833239		0.024086905		-1.524522254
F		0.473178117		1.468680929		1.724776039
F		2.471613469		0.679658076		3.662576437
F		-0.056457825		-1.110828852		2.854018571
12
-187.38518821
Al		1.38414728		-0.069450683		2.390173673
Al		1.193322		1.2865834		-0.0389638
Al		-0.217582362		0.71739025		-2.375911173
F		-1.732167372		-0.298042053		-2.186173206
F		2.071266653		-0.334681553		0.648970252
F		-0.008258261		1.88811969		-3.767174133
F		-0.39672341		1.907033353		-0.867049849
F		2.617167757		2.386784512		-0.335839043
F		1.334023639		0.027483405		-1.544756254
F		0.466809917		1.482826029		1.702471439
F		2.486073569		0.662793476		3.654932637
F		-0.041054925		-1.128792952		2.845876471
12
-187.38518821
Al		1.35876838		-0.039851683		2.403589273
Al		1.2141875		1.2622483		-0.0499936
Al		-0.242961162		0.74698925		-2.362495573
F		-1.716764572		-0.316006153		-2.194315306
F		2.069243553		-0.339040153		0.675710552
F		0.006201839		1.87125509		-3.774817933
F		-0.38730501		1.913423453		-0.842380149
F		2.609844957		2.395325012		-0.331968143
F		1.316214039		0.030879905		-1.564990254
F		0.460441717		1.496971129		1.680166839
F		2.500533669		0.645928876		3.647288837
F		-0.025652025		-1.146757052		2.837734371
12
-187.38518821
Al		1.33338948		-0.010252683		2.417004873
Al		1.235053		1.2379132		-0.0610234
Al		-0.268339962		0.77658825		-2.349079973
F		-1.701361772		-0.333970253		-2.202457406
F		2.067220453		-0.343398753		0.702450852
F		0.020661939		1.85439049		-3.782461733
F		-0.37788661		1.919813553		-0.817710449
F		2.602522157		2.403865512		-0.328097243
F		1.298404439		0.034276405		-1.585224254
F		0.454073517		1.511116229		1.657862239
F		2.514993769		0.629064276		3.639645037
F		-0.010249125		-1.164721152		2.829592271
12
-187.38518821
Al		1.30801058		0.019346317		2.430420473
Al		1.2559185		1.2135781		-0.0720532
Al		-0.293718762		0.80618725		-2.335664373
F		-1.685958972		-0.351934353		-2.210599506
F		2.065197353		-0.347757353		0.729191152
F		0.035122039		1.83752589		-3.790105533
F		-0.36846821		1.926203653		-0.793040749
F		2.595199357		2.412406012		-0.324226343
F		1.280594839		0.037672905		-1.605458254
F		0.447705317		1.525261329		1.635557639
F		2.529453869		0.612199676		3.632001237
F		0.005153775		-1.182685252		2.821450171
12
-187.38518821
Al		1.28263168		0.048945317		2.443836073
Al		1.276784		1.189243		-0.083083
Al		-0.319097562		0.83578625		-2.322248773
F		-1.670556172		-0.369898453		-2.218741606
F		2.063174253		-0.352115953		0.755931452
F		0.049582139		1.82066129		-3.797749333
F		-0.35904981		1.932593753		-0.768371049
F		2.587876557		2.420946512		-0.320355443
F		1.262785239		0.041069405		-1.625692254
F		0.441337117		1.539406429		1.613253039
F		2.543913969		0.595335076		3.624357437
F		0.020556675		-1.200649352		2.813308071
12
-187.38518821
Al		1.25725278		0.078544317		2.457251673
Al		1.2976495		1.1649079		-0.0941128
Al		-0.344476362		0.86538525		-2.308833173
F		-1.655153372		-0.387862553		-2.226883706
F		2.061151153		-0.356474553		0.782671752
F		0.064042239		1.80379669		-3.805393133
F		-0.34963141		1.938983853		-0.743701349
F		2.580553757		2.429487012		-0.316484543
F		1.244975639		0.044465905		-1.645926254
F		0.434968917		1.553551529		1.590948439
F		2.558374069		0.578470476		3.616713637
F		0.035959575		-1.218613452		2.805165971
12
-187.38518821
Al		1.23187388		0.108143317		2.470667273
Al		1.318515		1.1405728		-0.1051426
Al		-0.369855162		0.89498425		-2.295417573
F		-1.639750572		-0.405826653		-2.235025806
F		2.059128053		-0.360833153		0.809412052
F		0.078502339		1.78693209		-3.813036933
F		-0.34021301		1.945373953		-0.719031649
F		2.573230957		2.438027512		-0.312613643
F		1.227166039		0.047862405		-1.666160254
F		0.428600717		1.567696629		1.568643839
F		2.572834169		0.561605876		3.609069837
F		0.051362475		-1.236577552		2.797023871
12
-187.38518821
Al		1.20649498		0.137742317		2.484082873
Al		1.3393805		1.1162377		-0.1161724
Al		-0.395233962		0.92458325		-2.282001973
F		-1.624347772		-0.423790753		-2.243167906
F		2.057104953		-0.365191753		0.836152352
F		0.092962439		1.77006749		-3.820680733
F		-0.33079461		1.951764053		-0.694361949
F		2.565908157		2.446568012		-0.308742743
F		1.209356439		0.051258905		-1.686394254
F		0.422232517		1.581841729		1.546339239
F		2.587294269		0.544741276		3.601426037
F		0.066765375		-1.254541652		2.788881771
12
-187.38518821
Al		1.18111608		0.167341317		2.497498473
Al		1.360246		1.0919026		-0.1272022
Al		-0.420612762		0.95418225		-2.268586373
F		-1.608944972		-0.441754853		-2.251310006
F		2.055081853		-0.369550353		0.862892652
F		0.107422539		1.75320289		-3.828324533
F		-0.32137621		1.958154153		-0.669692249
F		2.558585357		2.455108512		-0.304871843
F		1.191546839		0.054655405		-1.706628254
F		0.415864317		1.595986829		1.524034639
F		2.601754369		0.527876676		3.593782237
F		0.082168275		-1.272505752		2.780739671
12
-187.38518821
Al		1.15573718		0.196940317		2.510914073
Al		1.3811115		1.0675675		-0.138232
Al		-0.445991562		0.98378125		-2.255170773
F		-1.593542172		-0.459718953		-2.259452106
F		2.053058753		-0.373908953		0.889632952
F		0.121882639		1.73633829		-3.835968333
F		-0.31195781		1.964544253		-0.645022549
F		2.551262557		2.463649012		-0.301000943
F		1.173737239		0.058051905		-1.726862254
F		0.409496117		1.610131929		1.501730039
F		2.616214469		0.511012076		3.586138437
F		0.097571175		-1.290469852		2.772597571
12
-187.38518821
Al		1.13035828		0.226539317		2.524329673
Al		1.401977		1.0432324		-0.1492618
Al		-0.471370362		1.01338025		-2.241755173
F		-1.578139372		-0.477683053		-2.267594206
F		2.051035653		-0.378267553		0.916373252
F		0.136342739		1.71947369		-3.843612133
F		-0.30253941		1.970934353		-0.620352849
F		2.543939757		2.472189512		-0.297130043
F		1.155927639		0.061448405		-1.747096254
F		0.403127917		1.624277029		1.479425439
F		2.630674569		0.494147476		3.578494637
F		0.112974075		-1.308433952		2.764455471
12
-187.38518821
Al		1.10497938		0.256138317		2.537745273
Al		1.4228425		1.0188973		-0.1602916
Al		-0.496749162		1.04297925		-2.228339573
F		-1.562736572		-0.495647153		-2.275736306
F		2.049012553		-0.382626153		0.943113552
F		0.150802839		1.70260909		-3.851255933
F		-0.29312101		1.977324453		-0.595683149
F		2.536616957		2.480730012		-0.293259143
F		1.138118039		0.064844905		-1.767330254
F		0.396759717		1.638422129		1.457120839
F		2.645134669		0.477282876		3.570850837
F		0.128376975		-1.326398052		2.756313371
12
-187.38518821
Al		1.07960048		0.285737317		2.551160873
Al		1.443708		0.9945622		-0.1713214
Al		-0.522127962		1.07257825		-2.214923973
F		-1.547333772		-0.513611253		-2.283878406
F		2.046989453		-0.386984753		0.969853852
F		0.165262939		1.68574449		-3.858899733
F		-0.28370261		1.983714553		-0.571013449
F		2.529294157		2.489270512		-0.289388243
F		1.120308439		0.068241405		-1.787564254
F		0.390391517		1.652567229		1.434816239
F		2.659594769		0.460418276		3.563207037
F		0.143779875		-1.344362152		2.748171271
12
-187.38518821
Al		1.05422158		0.315336317		2.564576473
Al		1.4645735		0.9702271		-0.1823512
Al		-0.547506762		1.10217725		-2.201508373
F		-1.531930972		-0.531575353		-2.292020506
F		2.044966353		-0.391343353		0.996594152
F		0.179723039		1.66887989		-3.866543533
F		-0.27428421		1.990104653		-0.546343749
F		2.521971357		2.497811012		-0.285517343
F		1.102498839		0.071637905		-1.807798254
F		0.384023317		1.666712329		1.412511639
F		2.674054869		0.443553676		3.555563237
F		0.159182775		-1.362326252		2.740029171
