12
Properties=species:S:1:pos:R:3:forces:R:3 energy=-183.81464549 pbc="F F F"
Al    -1.994544361    2.65064362    -1.008256891    -1.083741    -2.438662    1.558947
Al    -0.357359655    0.031930606    -2.1078280740000004    -2.031254    -4.313795    0.876581
Al    -2.1208553759999997    -0.176326518    -0.600496837    1.89777    3.527719    -5.825879
F    -0.563571041    3.608749736    -0.241117857    -0.128598    0.106049    0.202804
F    -2.831010547    3.207281793    -2.613738792    -0.073789    0.097039    -0.297457
F    -1.15600188    -1.626509227    -2.259322261    2.110396    2.385659    -1.211996
F    -2.561666062    1.532226783    0.45618336200000004    -0.812451    1.172524    1.782053
F    -3.193561463    -1.128127632    0.48315235300000003    0.19684    0.644142    -0.013939
F    0.377314698    -0.946187941    -3.619638304    0.040886    -0.617175    -0.425945
F    -0.825747525    1.907918414    -2.246526731    -0.869272    -0.457176    0.425006
F    -2.354475757    0.23049325100000004    -2.2739860280000004    1.141815    -0.521811    2.493689
F    -0.240642468    0.22000743900000003    -0.37467090799999997    -0.388604    0.415488    0.436137
