12
Properties=species:S:1:pos:R:3:forces:R:3 energy=-173.12261619 pbc="F F F"
Al    -0.942861261    2.49196672    -1.641926991    23.246109    -24.360657    -16.054189
Al    -0.340858655    0.374126906    -2.518048774    -1.087416    6.719406    0.409698
Al    -2.087935876    -0.8655621179999999    -0.730780337    3.297931    -2.851712    -4.398505
F    -0.8186226409999999    3.662161936    -0.199859957    -0.159906    1.516871    2.497479
F    -3.460339347    3.308654393    -2.4275044919999997    -2.811725    0.734671    0.063561
F    -1.5398758799999999    -1.4358515269999998    -1.489762261    -0.953138    0.412483    1.364777
F    -2.775763362    1.446332383    0.432264062    -1.381087    1.203875    2.078223
F    -3.192171963    -1.231401132    0.5461049530000001    -0.216131    1.102535    0.427556
F    0.498491298    -0.45366274100000004    -3.502978604    0.18756    -0.014081    -0.08147
F    -0.44349482500000004    1.704978214    -2.1278664309999997    -18.014522    16.965282    11.723578
F    -2.6074292569999997    0.461503051    -2.252393728    -1.317945    -0.851245    0.664985
F    -0.32227176799999996    0.14576583899999998    -0.268479708    -0.78973    -0.577428    1.304307
