12
Properties=species:S:1:pos:R:3:forces:R:3 energy=-181.41614096 pbc="F F F"
Al    0.9746362799999999    0.404741717    2.611367073    -0.020913    -0.056556    0.085211
Al    1.1305698    1.1713594    -0.0368962    -2.728183    -2.562982    0.49373
Al    -0.6302159620000001    1.19312185    -2.163985773    -0.072491    -0.031198    -0.068287
F    -1.648687172    -0.399333853    -2.2387334059999997    -0.033084    0.016123    -0.098157
F    2.074767253    -0.147144153    0.328986452    -3.356749    6.027339    -3.382801
F    0.072282339    1.78550869    -3.811996733    -0.065028    -0.064508    0.019312
F    -0.004947810000000004    1.563890153    -0.926143449    6.40358    -3.165004    2.8314
F    2.417969357    2.177493512    -0.30344684299999997    -3.137078    -2.947123    0.567727
F    1.5437162389999999    0.11372960500000001    -1.251215854    -0.111036    4.432914    6.275115
F    0.782407117    1.177109229    1.416717239    3.15788    -1.570561    -6.826519
F    2.567092169    0.559946476    3.611539837    -0.069812    -0.062163    0.005084
F    0.047014675    -1.232336352    2.8069676709999998    0.032913    -0.016282    0.098186
