12
Properties=species:S:1:pos:R:3:forces:R:3 energy=-186.54085233 pbc="F F F"
Al    -0.02752953800000002    0.8574240599999999    -1.715790236    0.383857    -0.38594    0.092334
Al    -0.123284214    1.114853753    1.382163236    0.006636    0.130291    0.001488
Al    -2.755861719    0.6158030889999999    -1.7316219419999999    -0.386731    0.186517    -0.025364
F    -3.317317561    0.404038608    -3.4873488079999997    -0.010906    -0.030826    -0.083328
F    -1.263957157    -0.603516001    -1.671107045    0.222807    -0.11783    0.002661
F    -1.552944187    2.082287803    -1.870240783    -0.287072    0.306842    -0.035496
F    -1.7960863249999997    0.872021139    0.552697124    -0.124769    -0.020427    -0.041187
F    0.896850527    1.105385643    -0.216500611    0.088173    0.021257    -0.031776
F    0.14389922500000002    2.797146197    1.983142147    0.008975    0.139445    0.053837
F    0.484063715    -0.364305058    2.217539645    0.081007    -0.228393    0.117155
F    -4.087286992    0.54776527    -0.466107265    -0.095389    -0.033646    0.083503
F    1.058543927    0.902214137    -3.153630029    0.11341    0.032709    -0.133827
