      12
SCF Done            -186.54085233
Al           -0.335317538         0.846414060        -1.826398236
Al           -0.431072214         1.103843753         1.271555236
Al           -3.063649719         0.604793089        -1.842229942
F            -3.575607561         0.394799608        -3.580168808
F            -1.522247157        -0.612755001        -1.763927045
F            -1.811234187         2.073048803        -1.963060783
F            -2.054376325         0.862782139         0.459877124
F             0.638560527         1.096146643        -0.309320611
F            -0.114390775         2.787907197         1.890322147
F             0.225773715        -0.373544058         2.124719645
F            -4.345576992         0.538526270        -0.558927265
F             0.800253927         0.892975137        -3.246450029
