12
-187.24475565
Al		0.559212193		-0.405197158		1.678558739
Al		2.269247365		-1.981011872		-0.635452497
Al		-1.019485981		-1.829926758		-0.813686143
F		3.444481707		-0.780441793		-1.40826218
F		-1.928630854		-0.583803888		-1.777595597
F		2.559538395		-3.745479694		-0.462146643
F		-1.450103566		-3.598741202		-0.73775872
F		1.981745997		-1.395653393		1.114631402
F		0.708445164		-1.659964882		-1.497359665
F		0.376597752		-0.844555563		3.459832289
F		0.650250571		1.246835299		0.989836136
F		-0.909590868		-1.289840383		0.915887814
