12
-187.24475565
Al		0.328668693		-0.618726958		1.746599239
Al		2.358628965		-1.769517072		-0.507853597
Al		-0.880224881		-1.830444858		-1.009783143
F		3.479326407		-0.467919693		-1.08323088
F		-1.825246254		-0.562609088		-1.897353697
F		2.754567295		-3.544027894		-0.494836443
F		-1.203927966		-3.614689002		-1.10236912
F		1.888217397		-1.416911993		1.220440402
F		0.844146664		-1.493345682		-1.488465065
F		0.082143152		-1.205142163		3.441611889
F		0.381889071		1.123988399		1.219466636
F		-0.966237568		-1.467865483		0.782351114
