12
-187.24475565
Al		0.432762395		-0.520997878		1.715243717
Al		2.318180563		-1.866882254		-0.56450269
Al		-0.943037382		-1.82963814		-0.921571336
F		3.464641511		-0.611729993		-1.229508403
F		-1.870662051		-0.571521089		-1.844579021
F		2.665158587		-3.636817677		-0.478155392
F		-1.316269573		-3.606812385		-0.937146669
F		1.930045996		-1.407604132		1.173113
F		0.783330164		-1.569600882		-1.492346065
F		0.214103351		-1.040113841		3.449541081
F		0.504480379		1.180221166		1.114313072
F		-0.940945869		-1.385967321		0.842136412
