12
-187.24475565
Al		0.391194795		-0.560156478		1.727828717
Al		2.334341963		-1.827813054		-0.54197809
Al		-0.917961182		-1.83001794		-0.956763736
F		3.470400111		-0.554030393		-1.171143803
F		-1.852653451		-0.568028489		-1.865522821
F		2.700997987		-3.599579677		-0.485009992
F		-1.271288573		-3.610025785		-1.003184669
F		1.913382996		-1.411291732		1.1919672
F		0.807570164		-1.539046882		-1.490809865
F		0.161507551		-1.106237641		3.446404681
F		0.455382979		1.157688766		1.156452072
F		-0.951016869		-1.418824321		0.818313612
