12
-187.24475565
Al		0.412502693		-0.541079758		1.721857239
Al		2.326126565		-1.846424272		-0.554253197
Al		-0.930865281		-1.830256458		-0.938475143
F		3.466655607		-0.581564093		-1.20142408
F		-1.862840654		-0.570316288		-1.853805297
F		2.683647695		-3.617283094		-0.482949243
F		-1.293446366		-3.608889802		-0.96978352
F		1.922227797		-1.409181593		1.181964402
F		0.794800664		-1.553934482		-1.491699465
F		0.189217552		-1.074019763		3.448237489
F		0.479475071		1.168659999		1.135964636
F		-0.945638768		-1.403129083		0.830909914
