12
-187.24475565
Al		0.557465195		-0.403522078		1.677488717
Al		2.269696363		-1.984089854		-0.63207649
Al		-1.018265982		-1.82849874		-0.815994136
F		3.447365711		-0.784828793		-1.404602203
F		-1.924687851		-0.581998889		-1.781747621
F		2.557640387		-3.748531677		-0.457591592
F		-1.451212573		-3.597172185		-0.739032669
F		1.980034996		-1.396541332		1.1165504
F		0.710610164		-1.661262882		-1.496954665
F		0.371890751		-0.841742441		3.458950281
F		0.651772579		1.247818366		0.987896072
F		-0.910732869		-1.287396321		0.913604812
12
-187.24475565
Al		0.515897595		-0.442680678		1.690073717
Al		2.285857763		-1.945020654		-0.60955189
Al		-0.993189782		-1.82887854		-0.851186536
F		3.453124311		-0.727129193		-1.346237603
F		-1.906679251		-0.578506289		-1.802691421
F		2.593479787		-3.711293677		-0.464446192
F		-1.406231573		-3.600385585		-0.805070669
F		1.963371996		-1.400228932		1.1354046
F		0.734850164		-1.630708882		-1.495418465
F		0.319294951		-0.907866241		3.455813881
F		0.602675179		1.225285966		1.030035072
F		-0.920803869		-1.320253321		0.889782012
12
-187.24475565
Al		0.474329995		-0.481839278		1.702658717
Al		2.302019163		-1.905951454		-0.58702729
Al		-0.968113582		-1.82925834		-0.886378936
F		3.458882911		-0.669429593		-1.287873003
F		-1.888670651		-0.575013689		-1.823635221
F		2.629319187		-3.674055677		-0.471300792
F		-1.361250573		-3.603598985		-0.871108669
F		1.946708996		-1.403916532		1.1542588
F		0.759090164		-1.600154882		-1.493882265
F		0.266699151		-0.973990041		3.452677481
F		0.553577779		1.202753566		1.072174072
F		-0.930874869		-1.353110321		0.865959212
12
-187.24475565
Al		0.432762395		-0.520997878		1.715243717
Al		2.318180563		-1.866882254		-0.56450269
Al		-0.943037382		-1.82963814		-0.921571336
F		3.464641511		-0.611729993		-1.229508403
F		-1.870662051		-0.571521089		-1.844579021
F		2.665158587		-3.636817677		-0.478155392
F		-1.316269573		-3.606812385		-0.937146669
F		1.930045996		-1.407604132		1.173113
F		0.783330164		-1.569600882		-1.492346065
F		0.214103351		-1.040113841		3.449541081
F		0.504480379		1.180221166		1.114313072
F		-0.940945869		-1.385967321		0.842136412
12
-187.24475565
Al		0.391194795		-0.560156478		1.727828717
Al		2.334341963		-1.827813054		-0.54197809
Al		-0.917961182		-1.83001794		-0.956763736
F		3.470400111		-0.554030393		-1.171143803
F		-1.852653451		-0.568028489		-1.865522821
F		2.700997987		-3.599579677		-0.485009992
F		-1.271288573		-3.610025785		-1.003184669
F		1.913382996		-1.411291732		1.1919672
F		0.807570164		-1.539046882		-1.490809865
F		0.161507551		-1.106237641		3.446404681
F		0.455382979		1.157688766		1.156452072
F		-0.951016869		-1.418824321		0.818313612
12
-187.24475565
Al		0.349627195		-0.599315078		1.740413717
Al		2.350503363		-1.788743854		-0.51945349
Al		-0.892884982		-1.83039774		-0.991956136
F		3.476158711		-0.496330793		-1.112779203
F		-1.834644851		-0.564535889		-1.886466621
F		2.736837387		-3.562341677		-0.491864592
F		-1.226307573		-3.613239185		-1.069222669
F		1.896719996		-1.414979332		1.2108214
F		0.831810164		-1.508492882		-1.489273665
F		0.108911751		-1.172361441		3.443268281
F		0.406285579		1.135156366		1.198591072
F		-0.961087869		-1.451681321		0.794490812
12
-187.24475565
Al		0.308059595		-0.638473678		1.752998717
Al		2.366664763		-1.749674654		-0.49692889
Al		-0.867808782		-1.83077754		-1.027148536
F		3.481917311		-0.438631193		-1.054414603
F		-1.816636251		-0.561043289		-1.907410421
F		2.772676787		-3.525103677		-0.498719192
F		-1.181326573		-3.616452585		-1.135260669
F		1.880056996		-1.418666932		1.2296756
F		0.856050164		-1.477938882		-1.487737465
F		0.056315951		-1.238485241		3.440131881
F		0.357188179		1.112623966		1.240730072
F		-0.971158869		-1.484538321		0.770668012
12
-187.24475565
Al		0.266491995		-0.677632278		1.765583717
Al		2.382826163		-1.710605454		-0.47440429
Al		-0.842732582		-1.83115734		-1.062340936
F		3.487675911		-0.380931593		-0.996050003
F		-1.798627651		-0.557550689		-1.928354221
F		2.808516187		-3.487865677		-0.505573792
F		-1.136345573		-3.619665985		-1.201298669
F		1.863393996		-1.422354532		1.2485298
F		0.880290164		-1.447384882		-1.486201265
F		0.003720151		-1.304609041		3.436995481
F		0.308090779		1.090091566		1.282869072
F		-0.981229869		-1.517395321		0.746845212
12
-187.24475565
Al		0.224924395		-0.716790878		1.778168717
Al		2.398987563		-1.671536254		-0.45187969
Al		-0.817656382		-1.83153714		-1.097533336
F		3.493434511		-0.323231993		-0.937685403
F		-1.780619051		-0.554058089		-1.949298021
F		2.844355587		-3.450627677		-0.512428392
F		-1.091364573		-3.622879385		-1.267336669
F		1.846730996		-1.426042132		1.267384
F		0.904530164		-1.416830882		-1.484665065
F		-0.048875649		-1.370732841		3.433859081
F		0.258993379		1.067559166		1.325008072
F		-0.991300869		-1.550252321		0.723022412
12
-187.24475565
Al		0.183356795		-0.755949478		1.790753717
Al		2.415148963		-1.632467054		-0.42935509
Al		-0.792580182		-1.83191694		-1.132725736
F		3.499193111		-0.265532393		-0.879320803
F		-1.762610451		-0.550565489		-1.970241821
F		2.880194987		-3.413389677		-0.519282992
F		-1.046383573		-3.626092785		-1.333374669
F		1.830067996		-1.429729732		1.2862382
F		0.928770164		-1.386276882		-1.483128865
F		-0.101471449		-1.436856641		3.430722681
F		0.209895979		1.045026766		1.367147072
F		-1.001371869		-1.583109321		0.699199612
