12
Properties=species:S:1:pos:R:3:forces:R:3 energy=-185.65507528 pbc="F F F"
Al    0.267084372    -2.360572611    -1.834823061    -0.022376    -0.086201    -0.020357
Al    2.06506253    -0.534056656    -0.792638024    0.080445    0.018258    0.039244
Al    -0.357098006    0.334751303    -1.8091734830000001    -0.058071    0.06794    -0.018888
F    3.6604798880000002    -0.171998016    -0.014342022999999999    0.015427    0.003501    0.007526
F    -0.17666737400000002    -4.070047493    -2.238516636    -0.00429    -0.016526    -0.003903
F    2.282594038    -2.157729876    -1.994891989    0.212209    -0.362813    0.269755
F    1.541742295    1.041393139    -1.96444822    0.032265    0.414223    0.277149
F    -1.5087634220000001    1.682166531    -2.1837769110000003    -0.011135    0.013028    -0.003622
F    -1.430293086    -1.337870052    -1.3853411690000001    -0.325007    -0.071721    -0.372371
F    -0.592306374    -1.126526909    -3.2014335810000003    -0.486076    -0.112343    -0.023302
F    0.703755596    0.830049798    -0.148355602    0.193332    0.454844    -0.071918
F    1.444606334    -2.36907301    -0.178799573    0.373277    -0.322191    -0.079314
