      12
SCF Done            -185.65507528
Al            0.274328372        -2.332665611        -1.828233061
Al            2.039017530        -0.539967656        -0.805344024
Al           -0.338297006         0.312755303        -1.803058483
F             3.630112888        -0.178889016        -0.029156023
F            -0.168221374        -4.037509493        -2.230832636
F             2.133520038        -1.870297876        -2.241457989
F             1.533151295         0.722197139        -2.216787220
F            -1.486842422         1.656520531        -2.176646911
F            -1.193159086        -1.286063052        -1.058664169
F            -0.196232374        -1.034634909        -3.219211581
F             0.536224596         0.470768798        -0.056239602
F             1.136593334        -2.121726010        -0.080910573
