12
Properties=species:S:1:pos:R:3:forces:R:3 energy=-187.23400807 pbc="F F F"
Al    0.311174693    -0.5641201579999999    1.7749442389999999    -0.076319    -0.033368    0.145427
Al    2.3757963650000002    -1.772759872    -0.548067497    -0.021829    -0.02646    -0.053595
Al    -0.869337481    -1.871115258    -1.028571643    0.118442    0.053386    -0.073214
F    3.538376207    -0.727148793    -1.51706918    0.106919    0.110509    -0.079256
F    -1.675424354    -0.419369388    -1.803374097    -0.080921    0.126942    -0.07357
F    2.674886395    -3.531274194    0.01459585699999999    0.020594    -0.149182    0.007664
F    -1.433595566    -3.5975757020000003    -1.20845272    -0.044179    -0.192663    -0.036542
F    2.027866997    -0.7781903929999999    1.0094574019999998    0.142287    -0.021711    0.080183
F    0.864295664    -1.754009882    -1.594753665    -0.05016    -0.001417    -0.007006
F    0.364187252    -1.474317563    3.393193289    0.00065    -0.020331    0.052368
F    -0.12391092899999998    1.2499797990000001    1.548617636    -0.022312    0.225593    -0.062909
F    -0.8143768680000001    -1.629368383    0.791931814    -0.093172    -0.071297    0.10045
