      12
SCF Done            -187.23400807
Al            0.330546693        -0.599560158         1.737634239
Al            2.361591365        -1.793922872        -0.507648497
Al           -0.879024481        -1.824898258        -1.000126643
F             3.547484207        -0.607027793        -1.215752180
F            -1.798464354        -0.452458388        -1.767832097
F             2.647896395        -3.586743194        -0.343985143
F            -1.269952566        -3.590540702        -1.236417720
F             1.970157997        -1.229308393         1.193347402
F             0.847302664        -1.508293882        -1.487016665
F             0.181317252        -1.171431563         3.453816289
F             0.192990071         1.132416799         1.167517636
F            -0.891040868        -1.635509383         0.832867814
