12
Properties=species:S:1:pos:R:3:forces:R:3 energy=-170.85392686 pbc="F F F"
Al    -0.28977683800000004    1.0574604600000002    -1.393635036    11.561877    2.856409    18.753514
Al    -0.11722921399999997    1.152658253    1.642608136    1.656536    0.374575    0.867795
Al    -2.6746453189999997    0.537372389    -1.6386912420000002    18.943088    4.082654    -0.592094
F    -3.6492131609999996    0.281802608    -3.9953501080000002    -2.945744    -0.742164    -5.533333
F    -1.477804757    -0.680923201    -1.871833545    -6.801653    1.44459    0.139972
F    -2.0856659869999996    2.131700403    -1.925477583    -5.599606    -4.117365    0.246051
F    -2.2831645249999997    0.659107739    0.30804602400000003    -2.080731    -0.458711    -0.473274
F    0.473864827    1.2433199430000001    -0.30193181100000005    -7.074692    -1.868556    -17.805108
F    -0.323457975    2.428954797    1.856508947    0.035287    -1.204368    -0.500214
F    0.22011781500000002    -0.086226358    1.9044771450000002    -0.461085    1.092413    -0.54401
F    -4.468321092    0.17333096999999997    -0.401022965    -6.034328    -1.226093    4.091592
F    0.942991927    1.279501037    -3.720756129    -1.198949    -0.233385    1.349108
