12
Properties=species:S:1:pos:R:3:forces:R:3 energy=-186.48727476 pbc="F F F"
Al    0.90698628    0.522964317    2.623590673    -1.172408    1.617846    0.104717
Al    1.587198    0.8302223999999999    -0.2466748    0.54205    -1.193103    -0.379155
Al    -0.680157362    1.30264025    -2.099089173    -0.844412    1.456726    1.080682
F    -1.2911073720000001    -0.567553053    -2.369665206    -0.070263    -1.056177    -0.208551
F    1.963170653    -0.386445553    1.149387252    0.098376    -0.157376    0.287469
F    0.24403373899999997    1.4526166900000002    -3.8406041330000003    0.608313    -0.138652    -0.815803
F    -0.26414541    2.029462353    -0.38996884899999995    0.094909    0.140451    0.415048
F    2.460685757    2.487093512    -0.266691043    0.085196    0.506123    0.054925
F    0.947312639    0.112590405    -1.873382254    -0.105889    -0.057027    -0.320334
F    0.303802917    1.7504570289999999    1.3000124389999999    -0.154893    0.263164    -0.328257
F    2.689286569    0.25140147599999996    3.435468637    0.955208    -0.309066    0.21643
F    0.394565075    -1.3956289519999998    2.6461984710000004    -0.036186    -1.07291    -0.10717
