      12
SCF Done            -186.48727476
Al            1.130358280         0.226539317         2.524329673
Al            1.401977000         1.043232400        -0.149261800
Al           -0.471370362         1.013380250        -2.241755173
F            -1.578139372        -0.477683053        -2.267594206
F             2.051035653        -0.378267553         0.916373252
F             0.136342739         1.719473690        -3.843612133
F            -0.302539410         1.970934353        -0.620352849
F             2.543939757         2.472189512        -0.297130043
F             1.155927639         0.061448405        -1.747096254
F             0.403127917         1.624277029         1.479425439
F             2.630674569         0.494147476         3.578494637
F             0.112974075        -1.308433952         2.764455471
