12
Properties=species:S:1:pos:R:3:forces:R:3 energy=-186.37664181 pbc="F F F"
Al    0.141031343    1.490311596    2.2933003210000003    0.386429    -0.528126    0.091865
Al    2.604841496    2.7374690250000002    1.6839433750000001    0.416973    -0.252344    0.070536
Al    1.3213810579999998    2.403809181    -0.680988853    0.376873    -0.252091    0.192243
F    1.0664773520000002    3.113585719    2.807441432    -0.145457    0.073035    0.0596
F    -1.4953649469999999    2.4152557430000003    2.2073556950000004    -0.325035    0.235932    -0.002715
F    -0.08945046000000001    -0.10743701800000001    3.15076726    0.016439    0.206071    -0.070173
F    2.061667369    0.9140287850000001    2.005158234    -0.053443    0.157209    -0.001487
F    3.061748342    1.890760072    -0.10549645399999999    -0.261389    0.15537    -0.084051
F    0.9646417140000001    2.671715152    -2.440697204    -0.053472    0.056161    -0.157096
F    1.594633868    3.938447787    0.49173386500000005    -0.0822    0.167018    -0.025016
F    4.141637966    3.4844508110000003    2.280916168    -0.208184    -0.03731    -0.085223
F    0.0873526    1.489427568    0.296545505    -0.067534    0.019075    0.011517
