12
-186.39349496
Al		-0.077811008		1.640568384		2.155209999
Al		2.525390237		2.607067187		1.765694202
Al		1.358232214		2.664769284		-0.646982797
F		1.001295883		3.092743838		2.835653908
F		-1.578272852		2.684533171		2.176503405
F		-0.492976945		-0.026658043		2.752509884
F		1.809479531		0.868195591		1.933801732
F		2.965023085		1.857157859		-0.072922021
F		1.087400466		3.035307008		-2.395463471
F		1.747710204		4.015150497		0.633269223
F		4.11090914		3.125345948		2.459678443
F		-0.00974156		1.801074136		0.21193532
