12
-186.39349496
Al		-0.076537328		1.637317376		2.154768063
Al		2.525872493		2.605949779		1.765256234
Al		1.356288694		2.669644484		-0.646105085
F		1.002423963		3.08886067		2.837654628
F		-1.577552356		2.681231555		2.179738909
F		-0.490824529		-0.030878475		2.748728348
F		1.810634379		0.866627559		1.930113204
F		2.964154925		1.860517955		-0.075347701
F		1.084178978		3.043244208		-2.393666015
F		1.746675164		4.016493057		0.636724519
F		4.111711892		3.123399884		2.459154651
F		-0.010352264		1.802749752		0.211868552
