12
-186.39349496
Al		-0.076378118		1.636911		2.154712821
Al		2.525932775		2.605810103		1.765201488
Al		1.356045754		2.670253884		-0.645995371
F		1.002564973		3.088375274		2.837904718
F		-1.577462294		2.680818853		2.180143347
F		-0.490555477		-0.031406029		2.748255656
F		1.810778735		0.866431555		1.929652138
F		2.964046405		1.860937967		-0.075650911
F		1.083776292		3.044236358		-2.393441333
F		1.746545784		4.016660877		0.637156431
F		4.111812236		3.123156626		2.459089177
F		-0.010428602		1.802959204		0.211860206
