12
-186.39349496
Al		-0.077731403		1.640365196		2.155182378
Al		2.525420378		2.606997349		1.765666829
Al		1.358110744		2.665073984		-0.64692794
F		1.001366388		3.09250114		2.835778953
F		-1.578227821		2.68432682		2.176705624
F		-0.492842419		-0.02692182		2.752273538
F		1.809551709		0.868097589		1.933571199
F		2.964968825		1.857367865		-0.073073626
F		1.087199123		3.035803083		-2.39535113
F		1.747645514		4.015234407		0.633485179
F		4.110959312		3.125224319		2.459645706
F		-0.009779729		1.801178862		0.211931147
