12
-186.39349496
Al		-0.075980093		1.63589506		2.154574716
Al		2.52608348		2.605460913		1.765064623
Al		1.355438404		2.671777384		-0.645721086
F		1.002917498		3.087161784		2.838529943
F		-1.577237139		2.679787098		2.181154442
F		-0.489882847		-0.032724914		2.747073926
F		1.811139625		0.865941545		1.928499473
F		2.963775105		1.861987997		-0.076408936
F		1.082769577		3.046716733		-2.392879628
F		1.746222334		4.017080427		0.638236211
F		4.112063096		3.122548481		2.458925492
F		-0.010619447		1.803482834		0.211839341
