12
-186.39349496
Al		-0.075820883		1.635488684		2.154519474
Al		2.526143762		2.605321237		1.765009877
Al		1.355195464		2.672386784		-0.645611372
F		1.003058508		3.086676388		2.838780033
F		-1.577147077		2.679374396		2.18155888
F		-0.489613795		-0.033252468		2.746601234
F		1.811283981		0.865745541		1.928038407
F		2.963666585		1.862408009		-0.076712146
F		1.082366891		3.047708883		-2.392654946
F		1.746092954		4.017248247		0.638668123
F		4.11216344		3.122305223		2.458860018
F		-0.010695785		1.803692286		0.211830995
