12
-186.39349496
Al		-0.075741278		1.635285496		2.154491853
Al		2.526173903		2.605251399		1.764982504
Al		1.355073994		2.672691484		-0.645556515
F		1.003129013		3.08643369		2.838905078
F		-1.577102046		2.679168045		2.181761099
F		-0.489479269		-0.033516245		2.746364888
F		1.811356159		0.865647539		1.927807874
F		2.963612325		1.862618015		-0.076863751
F		1.082165548		3.048204958		-2.392542605
F		1.746028264		4.017332157		0.638884079
F		4.112213612		3.122183594		2.458827281
F		-0.010733954		1.803797012		0.211826822
