12
-186.39349496
Al		-0.075104438		1.633659992		2.154270885
Al		2.526415031		2.604692695		1.76476352
Al		1.354102234		2.675129084		-0.645117659
F		1.003693053		3.084492106		2.839905438
F		-1.576741798		2.677517237		2.183378851
F		-0.488403061		-0.035626461		2.74447412
F		1.811933583		0.864863523		1.92596361
F		2.963178245		1.864298063		-0.078076591
F		1.080554804		3.052173558		-2.391643877
F		1.745510744		4.018003437		0.640611727
F		4.112614988		3.121210562		2.458565385
F		-0.011039306		1.80463482		0.211793438
