12
-186.39349496
Al		-0.075024833		1.633456804		2.154243264
Al		2.526445172		2.604622857		1.764736147
Al		1.353980764		2.675433784		-0.645062802
F		1.003763558		3.084249408		2.840030483
F		-1.576696767		2.677310886		2.18358107
F		-0.488268535		-0.035890238		2.744237774
F		1.812005761		0.864765521		1.925733077
F		2.963123985		1.864508069		-0.078228196
F		1.080353461		3.052669633		-2.391531536
F		1.745446054		4.018087347		0.640827683
F		4.11266516		3.121088933		2.458532648
F		-0.011077475		1.804739546		0.211789265
