12
-186.39349496
Al		-0.074865623		1.633050428		2.154188022
Al		2.526505454		2.604483181		1.764681401
Al		1.353737824		2.676043184		-0.644953088
F		1.003904568		3.083764012		2.840280573
F		-1.576606705		2.676898184		2.183985508
F		-0.487999483		-0.036417792		2.743765082
F		1.812150117		0.864569517		1.925272011
F		2.963015465		1.864928081		-0.078531406
F		1.079950775		3.053661783		-2.391306854
F		1.745316674		4.018255167		0.641259595
F		4.112765504		3.120845675		2.458467174
F		-0.011153813		1.804948998		0.211780919
