12
-186.39349496
Al		-0.074467598		1.632034488		2.154049917
Al		2.526656159		2.604133991		1.764544536
Al		1.353130474		2.677566684		-0.644678803
F		1.004257093		3.082550522		2.840905798
F		-1.57638155		2.675866429		2.184996603
F		-0.487326853		-0.037736677		2.742583352
F		1.812511007		0.864079507		1.924119346
F		2.962744165		1.865978111		-0.079289431
F		1.07894406		3.056142158		-2.390745149
F		1.744993224		4.018674717		0.642339375
F		4.113016364		3.12023753		2.458303489
F		-0.011344658		1.805472628		0.211760054
