12
-186.39349496
Al		-0.074228783		1.631424924		2.153967054
Al		2.526746582		2.603924477		1.764462417
Al		1.352766064		2.678480784		-0.644514232
F		1.004468608		3.081822428		2.841280933
F		-1.576246457		2.675247376		2.18560326
F		-0.486923275		-0.038528008		2.741874314
F		1.812727541		0.863785501		1.923427747
F		2.962581385		1.866608129		-0.079744246
F		1.078340031		3.057630383		-2.390408126
F		1.744799154		4.018926447		0.642987243
F		4.11316688		3.119872643		2.458205278
F		-0.011459165		1.805786806		0.211747535
