12
-186.39349496
Al		-0.073671548		1.630002608		2.153773707
Al		2.526957569		2.603435611		1.764270806
Al		1.351915774		2.680613684		-0.644130233
F		1.004962143		3.080123542		2.842156248
F		-1.57593124		2.673802919		2.187018793
F		-0.485981593		-0.040374447		2.740219892
F		1.813232787		0.863099487		1.921814016
F		2.962201565		1.868078171		-0.080805481
F		1.07693063		3.061102908		-2.389621739
F		1.744346324		4.019513817		0.644498935
F		4.113518084		3.11902124		2.457976119
F		-0.011726348		1.806519888		0.211718324
