12
-186.39349496
Al		-0.073353128		1.629189856		2.153663223
Al		2.527078133		2.603156259		1.764161314
Al		1.351429894		2.681832484		-0.643910805
F		1.005244163		3.07915275		2.842656428
F		-1.575751116		2.672977515		2.187827669
F		-0.485443489		-0.041429555		2.739274508
F		1.813521499		0.862707479		1.920891884
F		2.961984525		1.868918195		-0.081411901
F		1.076125258		3.063087208		-2.389172375
F		1.744087564		4.019849457		0.645362759
F		4.113718772		3.118534724		2.457845171
F		-0.011879024		1.806938792		0.211701632
