12
-186.39349496
Al		-0.077412983		1.639552444		2.155071894
Al		2.525540942		2.606717997		1.765557337
Al		1.357624864		2.666292784		-0.646708512
F		1.001648408		3.091530348		2.836279133
F		-1.578047697		2.683501416		2.1775145
F		-0.492304315		-0.027976928		2.751328154
F		1.809840421		0.867705581		1.932649067
F		2.964751785		1.858207889		-0.073680046
F		1.086393751		3.037787383		-2.394901766
F		1.747386754		4.015570047		0.634349003
F		4.11116		3.124737803		2.459514758
F		-0.009932405		1.801597766		0.211914455
