12
-186.39349496
Al		-0.072557078		1.627157976		2.153387013
Al		2.527379543		2.602457879		1.763887584
Al		1.350215194		2.684879484		-0.643362235
F		1.005949213		3.07672577		2.843906878
F		-1.575300806		2.670914005		2.189849859
F		-0.484098229		-0.044067325		2.736911048
F		1.814243279		0.861727459		1.918586554
F		2.961441925		1.871018255		-0.082927951
F		1.074111828		3.068047958		-2.388048965
F		1.743440664		4.020688557		0.647522319
F		4.114220492		3.117318434		2.457517801
F		-0.012260714		1.807986052		0.211659902
