12
-186.39349496
Al		-0.072477473		1.626954788		2.153359392
Al		2.527409684		2.602388041		1.763860211
Al		1.350093724		2.685184184		-0.643307378
F		1.006019718		3.076483072		2.844031923
F		-1.575255775		2.670707654		2.190052078
F		-0.483963703		-0.044331102		2.736674702
F		1.814315457		0.861629457		1.918356021
F		2.961387665		1.871228261		-0.083079556
F		1.073910485		3.068544033		-2.387936624
F		1.743375974		4.020772467		0.647738275
F		4.114270664		3.117196805		2.457485064
F		-0.012298883		1.808090778		0.211655729
