12
-186.39349496
Al		-0.077333378		1.639349256		2.155044273
Al		2.525571083		2.606648159		1.765529964
Al		1.357503394		2.666597484		-0.646653655
F		1.001718913		3.09128765		2.836404178
F		-1.578002666		2.683295065		2.177716719
F		-0.492169789		-0.028240705		2.751091808
F		1.809912599		0.867607579		1.932418534
F		2.964697525		1.858417895		-0.073831651
F		1.086192408		3.038283458		-2.394789425
F		1.747322064		4.015653957		0.634564959
F		4.111210172		3.124616174		2.459482021
F		-0.009970574		1.801702492		0.211910282
