12
-186.39349496
Al		-0.072159053		1.626142036		2.153248908
Al		2.527530248		2.602108689		1.763750719
Al		1.349607844		2.686402984		-0.64308795
F		1.006301738		3.07551228		2.844532103
F		-1.575075651		2.66988225		2.190860954
F		-0.483425599		-0.04538621		2.735729318
F		1.814604169		0.861237449		1.917433889
F		2.961170625		1.872068285		-0.083685976
F		1.073105113		3.070528333		-2.38748726
F		1.743117214		4.021108107		0.648602099
F		4.114471352		3.116710289		2.457354116
F		-0.012451559		1.808509682		0.211639037
