12
-186.39349496
Al		-0.071840633		1.625329284		2.153138424
Al		2.527650812		2.601829337		1.763641227
Al		1.349121964		2.687621784		-0.642868522
F		1.006583758		3.074541488		2.845032283
F		-1.574895527		2.669056846		2.19166983
F		-0.482887495		-0.046441318		2.734783934
F		1.814892881		0.860845441		1.916511757
F		2.960953585		1.872908309		-0.084292396
F		1.072299741		3.072512633		-2.387037896
F		1.742858454		4.021443747		0.649465923
F		4.11467204		3.116223773		2.457223168
F		-0.012604235		1.808928586		0.211622345
