12
-186.39349496
Al		-0.071761028		1.625126096		2.153110803
Al		2.527680953		2.601759499		1.763613854
Al		1.349000494		2.687926484		-0.642813665
F		1.006654263		3.07429879		2.845157328
F		-1.574850496		2.668850495		2.191872049
F		-0.482752969		-0.046705095		2.734547588
F		1.814965059		0.860747439		1.916281224
F		2.960899325		1.873118315		-0.084444001
F		1.072098398		3.073008708		-2.386925555
F		1.742793764		4.021527657		0.649681879
F		4.114722212		3.116102144		2.457190431
F		-0.012642404		1.809033312		0.211618172
