12
-186.39349496
Al		-0.071203793		1.62370378		2.152917456
Al		2.52789194		2.601270633		1.763422243
Al		1.348150204		2.690059384		-0.642429666
F		1.007147798		3.072599904		2.846032643
F		-1.574535279		2.667406038		2.193287582
F		-0.481811287		-0.048551534		2.732893166
F		1.815470305		0.860061425		1.914667493
F		2.960519505		1.874588357		-0.085505236
F		1.070688997		3.076481233		-2.386139168
F		1.742340934		4.022115027		0.651193571
F		4.115073416		3.115250741		2.456961272
F		-0.012909587		1.809766394		0.211588961
