12
-186.39349496
Al		-0.070964978		1.623094216		2.152834593
Al		2.527982363		2.601061119		1.763340124
Al		1.347785794		2.690973484		-0.642265095
F		1.007359313		3.07187181		2.846407778
F		-1.574400186		2.666786985		2.193894239
F		-0.481407709		-0.049342865		2.732184128
F		1.815686839		0.859767419		1.913975894
F		2.960356725		1.875218375		-0.085960051
F		1.070084968		3.077969458		-2.385802145
F		1.742146864		4.022366757		0.651841439
F		4.115223932		3.114885854		2.456863061
F		-0.013024094		1.810080572		0.211576442
