12
-186.39349496
Al		-0.070805768		1.62268784		2.152779351
Al		2.528042645		2.600921443		1.763285378
Al		1.347542854		2.691582884		-0.642155381
F		1.007500323		3.071386414		2.846657868
F		-1.574310124		2.666374283		2.194298677
F		-0.481138657		-0.049870419		2.731711436
F		1.815831195		0.859571415		1.913514828
F		2.960248205		1.875638387		-0.086263261
F		1.069682282		3.078961608		-2.385577463
F		1.742017484		4.022534577		0.652273351
F		4.115324276		3.114642596		2.456797587
F		-0.013100432		1.810290024		0.211568096
