12
-186.39349496
Al		-0.077174168		1.63894288		2.154989031
Al		2.525631365		2.606508483		1.765475218
Al		1.357260454		2.667206884		-0.646543941
F		1.001859923		3.090802254		2.836654268
F		-1.577912604		2.682882363		2.178121157
F		-0.491900737		-0.028768259		2.750619116
F		1.810056955		0.867411575		1.931957468
F		2.964589005		1.858837907		-0.074134861
F		1.085789722		3.039275608		-2.394564743
F		1.747192684		4.015821777		0.634996871
F		4.111310516		3.124372916		2.459416547
F		-0.010046912		1.801911944		0.211901936
