12
-186.39349496
Al		-0.078686663		1.642803452		2.15551383
Al		2.525058686		2.607835405		1.765995305
Al		1.359568384		2.661417584		-0.647586224
F		1.000520328		3.095413516		2.834278413
F		-1.578768193		2.686803032		2.174278996
F		-0.494456731		-0.023756496		2.75510969
F		1.808685573		0.869273613		1.936337595
F		2.965619945		1.854847793		-0.071254366
F		1.089615239		3.029850183		-2.396699222
F		1.748421794		4.014227487		0.630893707
F		4.110357248		3.126683867		2.46003855
F		-0.009321701		1.79992215		0.211981223
