12
-186.39349496
Al		-0.078925478		1.643413016		2.155596693
Al		2.524968263		2.608044919		1.766077424
Al		1.359932794		2.660503484		-0.647750795
F		1.000308813		3.09614161		2.833903278
F		-1.578903286		2.687422085		2.173672339
F		-0.494860309		-0.022965165		2.755818728
F		1.808469039		0.869567619		1.937029194
F		2.965782725		1.854217775		-0.070799551
F		1.090219268		3.028361958		-2.397036245
F		1.748615864		4.013975757		0.630245839
F		4.110206732		3.127048754		2.460136761
F		-0.009207194		1.799607972		0.211993742
