12
-186.39349496
Al		-0.079243898		1.644225768		2.155707177
Al		2.524847699		2.608324271		1.766186916
Al		1.360418674		2.659284684		-0.647970223
F		1.000026793		3.097112402		2.833403098
F		-1.57908341		2.688247489		2.172863463
F		-0.495398413		-0.021910057		2.756764112
F		1.808180327		0.869959627		1.937951326
F		2.965999765		1.853377751		-0.070193131
F		1.09102464		3.026377658		-2.397485609
F		1.748874624		4.013640117		0.629382015
F		4.110006044		3.12753527		2.460267709
F		-0.009054518		1.799189068		0.212010434
