12
-186.39349496
Al		-0.078049823		1.641177948		2.155292862
Al		2.525299814		2.607276701		1.765776321
Al		1.358596624		2.663855184		-0.647147368
F		1.001084368		3.093471932		2.835278773
F		-1.578407945		2.685152224		2.175896748
F		-0.493380523		-0.025866712		2.753218922
F		1.809262997		0.868489597		1.934493331
F		2.965185865		1.856527841		-0.072467206
F		1.088004495		3.033818783		-2.395800494
F		1.747904274		4.014898767		0.632621355
F		4.110758624		3.125710835		2.459776654
F		-0.009627053		1.800759958		0.211947839
