12
-186.39349496
Al		-0.080199158		1.646664024		2.156038629
Al		2.524486007		2.609162327		1.766515392
Al		1.361876314		2.655628284		-0.648628507
F		0.999180733		3.100024778		2.831902558
F		-1.579623782		2.690723701		2.170436835
F		-0.497012725		-0.018744733		2.759600264
F		1.807314191		0.871135651		1.940717722
F		2.966650885		1.850857679		-0.068373871
F		1.093440756		3.020424758		-2.398833701
F		1.749650904		4.012633197		0.626790543
F		4.10940398		3.128994818		2.460660553
F		-0.00859649		1.797932356		0.21206051
