12
-186.39349496
Al		-0.080278763		1.646867212		2.15606625
Al		2.524455866		2.609232165		1.766542765
Al		1.361997784		2.655323584		-0.648683364
F		0.999110228		3.100267476		2.831777513
F		-1.579668813		2.690930052		2.170234616
F		-0.497147251		-0.018480956		2.75983661
F		1.807242013		0.871233653		1.940948255
F		2.966705145		1.850647673		-0.068222266
F		1.093642099		3.019928683		-2.398946042
F		1.749715594		4.012549287		0.626574587
F		4.109353808		3.129116447		2.46069329
F		-0.008558321		1.79782763		0.212064683
