12
-186.39349496
Al		-0.080358368		1.6470704		2.156093871
Al		2.524425725		2.609302003		1.766570138
Al		1.362119254		2.655018884		-0.648738221
F		0.999039723		3.100510174		2.831652468
F		-1.579713844		2.691136403		2.170032397
F		-0.497281777		-0.018217179		2.760072956
F		1.807169835		0.871331655		1.941178788
F		2.966759405		1.850437667		-0.068070661
F		1.093843442		3.019432608		-2.399058383
F		1.749780284		4.012465377		0.626358631
F		4.109303636		3.129238076		2.460726027
F		-0.008520152		1.797722904		0.212068856
