12
-186.39349496
Al		-0.080597183		1.647679964		2.156176734
Al		2.524335302		2.609511517		1.766652257
Al		1.362483664		2.654104784		-0.648902792
F		0.998828208		3.101238268		2.831277333
F		-1.579848937		2.691755456		2.16942574
F		-0.497685355		-0.017425848		2.760781994
F		1.806953301		0.871625661		1.941870387
F		2.966922185		1.849807649		-0.067615846
F		1.094447471		3.017944383		-2.399395406
F		1.749974354		4.012213647		0.625710763
F		4.10915312		3.129602963		2.460824238
F		-0.008405645		1.797408726		0.212081375
