12
-186.39349496
Al		-0.080756393		1.64808634		2.156231976
Al		2.52427502		2.609651193		1.766707003
Al		1.362726604		2.653495384		-0.649012506
F		0.998687198		3.101723664		2.831027243
F		-1.579938999		2.692168158		2.169021302
F		-0.497954407		-0.016898294		2.761254686
F		1.806808945		0.871821665		1.942331453
F		2.967030705		1.849387637		-0.067312636
F		1.094850157		3.016952233		-2.399620088
F		1.750103734		4.012045827		0.625278851
F		4.109052776		3.129846221		2.460889712
F		-0.008329307		1.797199274		0.212089721
