12
-186.39349496
Al		-0.080995208		1.648695904		2.156314839
Al		2.524184597		2.609860707		1.766789122
Al		1.363091014		2.652581284		-0.649177077
F		0.998475683		3.102451758		2.830652108
F		-1.580074092		2.692787211		2.168414645
F		-0.498357985		-0.016106963		2.761963724
F		1.806592411		0.872115671		1.943023052
F		2.967193485		1.848757619		-0.066857821
F		1.095454186		3.015464008		-2.399957111
F		1.750297804		4.011794097		0.624630983
F		4.10890226		3.130211108		2.460987923
F		-0.0082148		1.796885096		0.21210224
