12
-186.39349496
Al		-0.081472838		1.649915032		2.156480565
Al		2.524003751		2.610279735		1.76695336
Al		1.363819834		2.650753084		-0.649506219
F		0.998052653		3.103907946		2.829901838
F		-1.580344278		2.694025317		2.167201331
F		-0.499165141		-0.014524301		2.7633818
F		1.806159343		0.872703683		1.94440625
F		2.967519045		1.847497583		-0.065948191
F		1.096662244		3.012487558		-2.400631157
F		1.750685944		4.011290637		0.623335247
F		4.108601228		3.130940882		2.461184345
F		-0.007985786		1.79625674		0.212127278
