12
-186.39349496
Al		-0.081632048		1.650321408		2.156535807
Al		2.523943469		2.610419411		1.767008106
Al		1.364062774		2.650143684		-0.649615933
F		0.997911643		3.104393342		2.829651748
F		-1.58043434		2.694438019		2.166796893
F		-0.499434193		-0.013996747		2.763854492
F		1.806014987		0.872899687		1.944867316
F		2.967627565		1.847077571		-0.065644981
F		1.09706493		3.011495408		-2.400855839
F		1.750815324		4.011122817		0.622903335
F		4.108500884		3.13118414		2.461249819
F		-0.007909448		1.796047288		0.212135624
