12
-186.39349496
Al		-0.078288638		1.641787512		2.155375725
Al		2.525209391		2.607486215		1.76585844
Al		1.358961034		2.662941084		-0.647311939
F		1.000872853		3.094200026		2.834903638
F		-1.578543038		2.685771277		2.175290091
F		-0.493784101		-0.025075381		2.75392796
F		1.809046463		0.868783603		1.93518493
F		2.965348645		1.855897823		-0.072012391
F		1.088608524		3.032330558		-2.396137517
F		1.748098344		4.014647037		0.631973487
F		4.110608108		3.126075722		2.459874865
F		-0.009512546		1.80044578		0.211960358
