12
-186.39349496
Al		-0.081950468		1.65113416		2.156646291
Al		2.523822905		2.610698763		1.767117598
Al		1.364548654		2.648924884		-0.649835361
F		0.997629623		3.105364134		2.829151568
F		-1.580614464		2.695263423		2.165988017
F		-0.499972297		-0.012941639		2.764799876
F		1.805726275		0.873291695		1.945789448
F		2.967844605		1.846237547		-0.065038561
F		1.097870302		3.009511108		-2.401305203
F		1.751074084		4.010787177		0.622039511
F		4.108300196		3.131670656		2.461380767
F		-0.007756772		1.795628384		0.212152316
