12
-186.39349496
Al		-0.082189283		1.651743724		2.156729154
Al		2.523732482		2.610908277		1.767199717
Al		1.364913064		2.648010784		-0.649999932
F		0.997418108		3.106092228		2.828776433
F		-1.580749557		2.695882476		2.16538136
F		-0.500375875		-0.012150308		2.765508914
F		1.805509741		0.873585701		1.946481047
F		2.968007385		1.845607529		-0.064583746
F		1.098474331		3.008022883		-2.401642226
F		1.751268154		4.010535447		0.621391643
F		4.10814968		3.132035543		2.461478978
F		-0.007642265		1.795314206		0.212164835
