12
-186.39349496
Al		-0.082428098		1.652353288		2.156812017
Al		2.523642059		2.611117791		1.767281836
Al		1.365277474		2.647096684		-0.650164503
F		0.997206593		3.106820322		2.828401298
F		-1.58088465		2.696501529		2.164774703
F		-0.500779453		-0.011358977		2.766217952
F		1.805293207		0.873879707		1.947172646
F		2.968170165		1.844977511		-0.064128931
F		1.09907836		3.006534658		-2.401979249
F		1.751462224		4.010283717		0.620743775
F		4.107999164		3.13240043		2.461577189
F		-0.007527758		1.795000028		0.212177354
