12
-186.39349496
Al		-0.082587308		1.652759664		2.156867259
Al		2.523581777		2.611257467		1.767336582
Al		1.365520414		2.646487284		-0.650274217
F		0.997065583		3.107305718		2.828151208
F		-1.580974712		2.696914231		2.164370265
F		-0.501048505		-0.010831423		2.766690644
F		1.805148851		0.874075711		1.947633712
F		2.968278685		1.844557499		-0.063825721
F		1.099481046		3.005542508		-2.402203931
F		1.751591604		4.010115897		0.620311863
F		4.10789882		3.132643688		2.461642663
F		-0.00745142		1.794790576		0.2121857
