12
-186.39349496
Al		-0.082666913		1.652962852		2.15689488
Al		2.523551636		2.611327305		1.767363955
Al		1.365641884		2.646182584		-0.650329074
F		0.996995078		3.107548416		2.828026163
F		-1.581019743		2.697120582		2.164168046
F		-0.501183031		-0.010567646		2.76692699
F		1.805076673		0.874173713		1.947864245
F		2.968332945		1.844347493		-0.063674116
F		1.099682389		3.005046433		-2.402316272
F		1.751656294		4.010031987		0.620095907
F		4.107848648		3.132765317		2.4616754
F		-0.007413251		1.79468585		0.212189873
