12
-186.39349496
Al		-0.082746518		1.65316604		2.156922501
Al		2.523521495		2.611397143		1.767391328
Al		1.365763354		2.645877884		-0.650383931
F		0.996924573		3.107791114		2.827901118
F		-1.581064774		2.697326933		2.163965827
F		-0.501317557		-0.010303869		2.767163336
F		1.805004495		0.874271715		1.948094778
F		2.968387205		1.844137487		-0.063522511
F		1.099883732		3.004550358		-2.402428613
F		1.751720984		4.009948077		0.619879951
F		4.107798476		3.132886946		2.461708137
F		-0.007375082		1.794581124		0.212194046
