12
-186.39349496
Al		-0.083542568		1.65519792		2.157198711
Al		2.523220085		2.612095523		1.767665058
Al		1.366978054		2.642830884		-0.650932501
F		0.996219523		3.110218094		2.826650668
F		-1.581515084		2.699390443		2.161943637
F		-0.502662817		-0.007666099		2.769526796
F		1.804282715		0.875251735		1.950400108
F		2.968929805		1.842037427		-0.062006461
F		1.101897162		2.999589608		-2.403552023
F		1.752367884		4.009108977		0.617720391
F		4.107296756		3.134103236		2.462035507
F		-0.006993392		1.793533864		0.212235776
