12
-186.39349496
Al		-0.083622173		1.655401108		2.157226332
Al		2.523189944		2.612165361		1.767692431
Al		1.367099524		2.642526184		-0.650987358
F		0.996149018		3.110460792		2.826525623
F		-1.581560115		2.699596794		2.161741418
F		-0.502797343		-0.007402322		2.769763142
F		1.804210537		0.875349737		1.950630641
F		2.968984065		1.841827421		-0.061854856
F		1.102098505		2.999093533		-2.403664364
F		1.752432574		4.009025067		0.617504435
F		4.107246584		3.134224865		2.462068244
F		-0.006955223		1.793429138		0.212239949
