12
-186.39349496
Al		-0.083940593		1.65621386		2.157336816
Al		2.52306938		2.612444713		1.767801923
Al		1.367585404		2.641307384		-0.651206786
F		0.995866998		3.111431584		2.826025443
F		-1.581740239		2.700422198		2.160932542
F		-0.503335447		-0.006347214		2.770708526
F		1.803921825		0.875741745		1.951552773
F		2.969201105		1.840987397		-0.061248436
F		1.102903877		2.997109233		-2.404113728
F		1.752691334		4.008689427		0.616640611
F		4.107045896		3.134711381		2.462199192
F		-0.006802547		1.793010234		0.212256641
