12
-186.39349496
Al		-0.084020198		1.656417048		2.157364437
Al		2.523039239		2.612514551		1.767829296
Al		1.367706874		2.641002684		-0.651261643
F		0.995796493		3.111674282		2.825900398
F		-1.58178527		2.700628549		2.160730323
F		-0.503469973		-0.006083437		2.770944872
F		1.803849647		0.875839747		1.951783306
F		2.969255365		1.840777391		-0.061096831
F		1.10310522		2.996613158		-2.404226069
F		1.752756024		4.008605517		0.616424655
F		4.106995724		3.13483301		2.462231929
F		-0.006764378		1.792905508		0.212260814
