12
-186.39349496
Al		-0.084338618		1.6572298		2.157474921
Al		2.522918675		2.612793903		1.767938788
Al		1.368192754		2.639783884		-0.651481071
F		0.995514473		3.112645074		2.825400218
F		-1.581965394		2.701453953		2.159921447
F		-0.504008077		-0.005028329		2.771890256
F		1.803560935		0.876231755		1.952705438
F		2.969472405		1.839937367		-0.060490411
F		1.103910592		2.994628858		-2.404675433
F		1.753014784		4.008269877		0.615560831
F		4.106795036		3.135319526		2.462362877
F		-0.006611702		1.792486604		0.212277506
