12
-186.39349496
Al		-0.084418223		1.657432988		2.157502542
Al		2.522888534		2.612863741		1.767966161
Al		1.368314224		2.639479184		-0.651535928
F		0.995443968		3.112887772		2.825275173
F		-1.582010425		2.701660304		2.159719228
F		-0.504142603		-0.004764552		2.772126602
F		1.803488757		0.876329757		1.952935971
F		2.969526665		1.839727361		-0.060338806
F		1.104111935		2.994132783		-2.404787774
F		1.753079474		4.008185967		0.615344875
F		4.106744864		3.135441155		2.462395614
F		-0.006573533		1.792381878		0.212281679
