12
-186.39349496
Al		-0.084497828		1.657636176		2.157530163
Al		2.522858393		2.612933579		1.767993534
Al		1.368435694		2.639174484		-0.651590785
F		0.995373463		3.11313047		2.825150128
F		-1.582055456		2.701866655		2.159517009
F		-0.504277129		-0.004500775		2.772362948
F		1.803416579		0.876427759		1.953166504
F		2.969580925		1.839517355		-0.060187201
F		1.104313278		2.993636708		-2.404900115
F		1.753144164		4.008102057		0.615128919
F		4.106694692		3.135562784		2.462428351
F		-0.006535364		1.792277152		0.212285852
