12
-186.39349496
Al		-0.078607058		1.642600264		2.155486209
Al		2.525088827		2.607765567		1.765967932
Al		1.359446914		2.661722284		-0.647531367
F		1.000590833		3.095170818		2.834403458
F		-1.578723162		2.686596681		2.174481215
F		-0.494322205		-0.024020273		2.754873344
F		1.808757751		0.869175611		1.936107062
F		2.965565685		1.855057799		-0.071405971
F		1.089413896		3.030346258		-2.396586881
F		1.748357104		4.014311397		0.631109663
F		4.11040742		3.126562238		2.460005813
F		-0.00935987		1.800026876		0.21197705
