12
-186.39349496
Al		-0.085055063		1.659058492		2.15772351
Al		2.522647406		2.613422445		1.768185145
Al		1.369285984		2.637041584		-0.651974784
F		0.994879928		3.114829356		2.824274813
F		-1.582370673		2.703311112		2.158101476
F		-0.505218811		-0.002654336		2.77401737
F		1.802911333		0.877113773		1.954780235
F		2.969960745		1.838047313		-0.059125966
F		1.105722679		2.990164183		-2.405686502
F		1.753596994		4.007514687		0.613617227
F		4.106343488		3.136414187		2.46265751
F		-0.006268181		1.79154407		0.212315063
