12
-186.39349496
Al		-0.085293878		1.659668056		2.157806373
Al		2.522556983		2.613631959		1.768267264
Al		1.369650394		2.636127484		-0.652139355
F		0.994668413		3.11555745		2.823899678
F		-1.582505766		2.703930165		2.157494819
F		-0.505622389		-0.001863005		2.774726408
F		1.802694799		0.877407779		1.955471834
F		2.970123525		1.837417295		-0.058671151
F		1.106326708		2.988675958		-2.406023525
F		1.753791064		4.007262957		0.612969359
F		4.106192972		3.136779074		2.462755721
F		-0.006153674		1.791229892		0.212327582
