12
-186.39349496
Al		-0.085453088		1.660074432		2.157861615
Al		2.522496701		2.613771635		1.76832201
Al		1.369893334		2.635518084		-0.652249069
F		0.994527403		3.116042846		2.823649588
F		-1.582595828		2.704342867		2.157090381
F		-0.505891441		-0.001335451		2.7751991
F		1.802550443		0.877603783		1.9559329
F		2.970232045		1.836997283		-0.058367941
F		1.106729394		2.987683808		-2.406248207
F		1.753920444		4.007095137		0.612537447
F		4.106092628		3.137022332		2.462821195
F		-0.006077336		1.79102044		0.212335928
