12
-186.39349496
Al		-0.085612298		1.660480808		2.157916857
Al		2.522436419		2.613911311		1.768376756
Al		1.370136274		2.634908684		-0.652358783
F		0.994386393		3.116528242		2.823399498
F		-1.58268589		2.704755569		2.156685943
F		-0.506160493		-0.000807897		2.775671792
F		1.802406087		0.877799787		1.956393966
F		2.970340565		1.836577271		-0.058064731
F		1.10713208		2.986691658		-2.406472889
F		1.754049824		4.006927317		0.612105535
F		4.105992284		3.13726559		2.462886669
F		-0.006000998		1.790810988		0.212344274
