      12
SCF Done            -186.50959443
Al           -0.400935138         1.273564460        -1.810569436
Al           -0.469483414         1.036350953         1.294662436
Al           -2.963700919         0.270530689        -1.880133942
F            -3.475263561         0.211814008        -3.624874408
F            -1.190711157        -0.497057401        -1.943027845
F            -2.117517387         2.057397603        -1.801579183
F            -2.008392325         0.526634939         0.450387524
F             0.542230927         1.493391443        -0.276064611
F            -0.542793975         2.676406397         2.120094947
F             0.548144915        -0.330433658         1.953593245
F            -4.188244192        -0.209406530        -0.608925665
F             0.678559527         1.700875937        -3.217778029
