12
Properties=species:S:1:pos:R:3:forces:R:3 energy=-186.39349496 pbc="F F F"
Al    -0.135420657    1.732340596    2.6710675210000003    0.0    -0.0    -1e-06
Al    2.459322096    2.626913025    1.6349055749999999    1e-06    0.0    0.0
Al    1.4948856579999998    2.732461581    -0.6975196530000001    -0.0    0.0    -0.0
F    0.9847563520000001    3.218354519    2.881479832    0.0    0.0    0.0
F    -1.701413947    2.772147543    2.155796095    -0.0    -0.0    -0.0
F    -0.55688446    -0.170817218    2.73645126    0.0    -0.0    -0.0
F    2.2164593690000003    0.829199585    1.816703234    0.0    -0.0    -0.0
F    3.0644113419999996    1.7602878720000001    0.064827546    -0.0    -0.0    -0.0
F    1.0187117140000002    3.0141169519999997    -2.4641778039999997    0.0    0.0    -0.0
F    1.837873868    4.054801587    0.844025265    -0.0    0.0    0.0
F    3.9765819660000004    3.0589696109999998    2.3839101680000003    0.0    0.0    -0.0
F    -0.2151304    1.702118368    -0.28268949499999996    -0.0    0.0    1e-06
