      12
SCF Done            -186.39349496
Al           -0.077890657         1.640771596         2.155237521
Al            2.525360096         2.607137025         1.765721575
Al            1.358353658         2.664464581        -0.647037653
F             1.001225352         3.092986519         2.835528832
F            -1.578317947         2.684739543         2.176301095
F            -0.493111460        -0.026394218         2.752746260
F             1.809407369         0.868293585         1.934032234
F             2.965077342         1.856947872        -0.072770454
F             1.087601714         3.034810952        -2.395575804
F             1.747774868         4.015066587         0.633053265
F             4.110858966         3.125467611         2.459711168
F            -0.009703400         1.800969368         0.211939505
