12
Properties=species:S:1:pos:R:3:forces:R:3 energy=-186.54696304 pbc="F F F"
Al    -0.459431838    1.5120507600000002    -1.837729336    0.195075    0.453308    0.132462
Al    -0.533081314    1.367582853    1.266137836    -0.06993    -0.151167    -0.017894
Al    -3.053241319    0.651781889    -1.897218942    -0.093587    -0.253247    -0.185948
F    -3.553492061    0.513467808    -3.636794108    -0.001348    0.017205    0.015793
F    -1.312288157    -0.25140670099999995    -1.929748445    -0.174923    -0.32865    -0.022373
F    -2.1195032869999997    2.327676203    -1.852158983    0.132635    0.146987    0.009501
F    -2.0764283249999997    0.857006539    0.43186482400000004    -0.028384    -0.008217    0.001246
F    0.500878727    1.686252043    -0.302602111    0.062651    0.008573    -0.10374
F    -0.521882375    2.964656797    2.056710547    -0.003363    0.213429    0.092525
F    0.428286315    -0.07117285799999995    1.965377445    0.047161    -0.078449    0.034755
F    -4.2771580920000005    0.19817487000000003    -0.6198529650000001    -0.155991    -0.024585    0.146783
F    0.6419632270000001    1.816738537    -3.243456029    0.090005    0.004814    -0.103109
