12
Properties=species:S:1:pos:R:3:forces:R:3 energy=-186.28432775 pbc="F F F"
Al    -0.24780745699999998    1.535354396    2.509155321    -0.1374    -0.233378    0.427107
Al    2.416815696    2.473643225    1.704834575    -0.258804    -0.303374    -0.222586
Al    1.254237458    2.457887981    -0.47387345299999994    -0.111333    -0.302492    0.412939
F    0.826938952    3.1748965190000003    2.559342832    -0.082844    0.146883    -0.219951
F    -1.399271147    3.014673743    1.8732664949999998    0.092367    0.336059    -0.279911
F    -0.30190526    -0.35244561799999996    2.6888700599999997    0.23102    -0.227529    -0.096125
F    1.6873639690000002    0.7404425849999999    1.888515234    -0.114994    -0.066275    -0.031349
F    3.269411542    2.286642672    -0.199747654    0.311144    0.323265    -0.042115
F    1.179122714    3.060271352    -2.178851204    0.033862    0.065619    0.055726
F    1.989257468    4.008724987    0.48360166499999996    0.140222    0.039715    -0.098408
F    3.986396166    3.115392011    2.307877968    -0.033341    0.03683    -0.084072
F    -0.1406092    1.9351513679999999    0.556554905    -0.069901    0.184671    0.178749
