12
Properties=species:S:1:pos:R:3:forces:R:3 energy=-185.14529389 pbc="F F F"
Al    -1.877053261    2.3938634199999997    -1.287521291    -1.47522    -1.138939    -1.555592
Al    -0.576217355    0.117569206    -2.371060374    -0.803456    -0.054509    1.414239
Al    -2.063775976    -0.474603918    -0.35005083699999995    1.304244    0.374334    -0.898559
F    -0.8323765409999999    3.1825406359999997    0.08861334299999998    1.064668    -0.231724    0.927288
F    -2.754955247    3.067426993    -2.854119592    0.090357    -0.464467    -0.003778
F    -1.60665848    -1.699236027    -1.572547961    -0.10279    -0.078684    -0.108263
F    -2.260411962    1.328411083    0.258974562    -0.015233    -0.07999    0.075523
F    -3.619035763    -0.902899632    0.6978312529999999    -1.34803    0.598644    1.239475
F    0.8660183979999999    0.037825659    -3.630702504    0.95554    1.06734    -1.288252
F    -0.552761925    2.001742914    -2.666416031    0.086639    -0.059259    -0.036263
F    -2.481827157    0.49212915100000004    -2.1151592280000004    0.098276    0.321734    0.149221
F    -0.05458036799999999    0.057284239    -0.5481234079999999    0.145005    -0.254482    0.08496
