      12
SCF Done            -187.36206908
Al            1.257252780         0.078544317         2.457251673
Al            1.297649500         1.164907900        -0.094112800
Al           -0.344476362         0.865385250        -2.308833173
F            -1.655153372        -0.387862553        -2.226883706
F             2.061151153        -0.356474553         0.782671752
F             0.064042239         1.803796690        -3.805393133
F            -0.349631410         1.938983853        -0.743701349
F             2.580553757         2.429487012        -0.316484543
F             1.244975639         0.044465905        -1.645926254
F             0.434968917         1.553551529         1.590948439
F             2.558374069         0.578470476         3.616713637
F             0.035959575        -1.218613452         2.805165971
