12
Properties=species:S:1:pos:R:3:forces:R:3 energy=-186.55178614 pbc="F F F"
Al    -0.314179538    0.81303146    -1.885688036    0.016207    -0.101717    0.017279
Al    -0.457081014    1.117079053    1.274155336    -0.010001    0.026649    -0.002992
Al    -3.0378126190000003    0.543174189    -1.8491445420000001    -0.009146    0.030087    -0.002106
F    -3.510511461    0.367316908    -3.601641708    -0.001479    0.008873    -0.000356
F    -1.495898757    -0.664931801    -1.626723945    0.000481    -0.000484    0.043276
F    -1.7943244870000001    2.005257303    -2.119012083    0.002626    0.005265    -0.04472
F    -2.116382125    1.104984239    0.45238272399999996    -0.021211    0.071066    0.000384
F    0.657673827    0.727529143    -0.316783911    0.025373    -0.093916    0.001358
F    -0.654215575    2.658544897    2.306222647    -0.073815    -0.005992    0.035755
F    0.745557715    -0.15194715800000003    1.9268754449999999    0.077561    0.008426    -0.037046
F    -4.293507792    0.16317857    -0.597869965    0.001339    -0.009601    0.00063
F    0.677779327    1.5473918370000002    -3.294596229    -0.007936    0.061344    -0.011463
