12
Properties=species:S:1:pos:R:3:forces:R:3 energy=-185.51387565 pbc="F F F"
Al    -0.37200023800000004    1.18743636    -1.787595136    -0.697962    1.181336    1.276354
Al    -0.41143411399999996    1.0211736530000002    1.347942636    -0.258931    -0.219899    -0.324417
Al    -2.9014311189999997    0.40041028900000003    -1.848707942    -0.218985    -0.391896    -0.106021
F    -3.3948790609999997    0.402338408    -3.605491508    0.063384    -0.075747    -0.020509
F    -1.230756157    -0.5681993009999999    -1.8229786449999998    0.272679    -0.323968    -0.510401
F    -1.998880087    2.160916403    -1.840284583    -0.039288    0.346582    0.446617
F    -1.788549325    0.418017739    0.26779242400000003    -0.387439    -0.852239    0.187847
F    0.5912093270000001    1.899105243    -0.34163311100000004    0.239334    0.961652    -0.03159
F    -0.262100175    2.7561435970000003    2.099756747    0.759239    0.976363    -0.381985
F    -0.11350588500000001    -0.599168258    2.228998845    -0.402575    -0.88601    0.357776
F    -4.048689892    0.28808467000000004    -0.43012456499999996    -0.096244    0.09226    0.039081
F    0.31430962700000004    0.838335737    -3.632522029    0.766788    -0.808433    -0.932751
