      12
SCF Done            -181.44078674
Al           -0.041776657         1.631794396         2.141895321
Al            2.453768696         2.927702025         1.617805375
Al            1.229711858         2.817463381        -0.606226253
F             1.014965352         3.062927119         2.827972432
F            -1.661737747         2.737970343         2.179424695
F            -0.485453060        -0.034743218         2.755283660
F             1.734886769         0.585450585         1.962406834
F             3.109259742         1.763928072        -0.031515654
F             1.099836314         3.012679952        -2.347911804
F             1.780756868         3.818577387         0.628034265
F             4.217838966         3.145257411         2.508885368
F             0.026030800         1.807221968         0.195914705
