12
Properties=species:S:1:pos:R:3:forces:R:3 energy=-186.35984577 pbc="F F F"
Al    -0.131484157    1.792853596    2.175599021    0.238708    0.661507    -0.191438
Al    2.5735575959999997    2.5876780249999998    1.7652205749999998    0.190097    0.1669    0.038299
Al    1.363894158    2.513762581    -0.642838653    0.026264    -0.064687    0.165095
F    1.077592852    3.009462519    2.9769558320000002    -0.033783    0.001536    0.010322
F    -1.590340947    2.9603475429999997    1.9416905949999999    -0.164155    0.163006    0.013942
F    -0.55938946    0.062515282    2.94924726    -0.205199    -0.794547    0.055749
F    1.879617369    0.845553085    1.8402262340000002    0.051699    -0.131806    0.006507
F    3.092462342    1.910932372    -0.15216095400000001    -0.002094    -0.028676    -0.063454
F    0.995360714    2.865595452    -2.386795804    -0.03278    0.004897    -0.120516
F    1.596167368    3.914708587    0.683954265    -0.000114    0.05197    0.008683
F    4.107412966    3.293395111    2.414662668    -0.069405    -0.013679    -0.031841
F    0.04175860000000001    1.611922868    0.238515505    0.000761    -0.01642    0.108655
