      12
SCF Done            -186.35984577
Al           -0.078392157         1.655095596         2.155828021
Al            2.539109596         2.636333025         1.783133575
Al            1.362469158         2.646772581        -0.628622653
F             0.981231852         3.167268519         2.773572832
F            -1.578287947         2.693992543         2.377910595
F            -0.534488460        -0.131540718         2.400327260
F             1.847520369         0.893559085         2.068641234
F             2.925618342         1.781252372        -0.027667954
F             1.053717714         2.937127452        -2.391763804
F             1.826603368         4.037451587         0.581494265
F             4.124516966         3.188049111         2.441512668
F            -0.026310400         1.854950868         0.267542505
