12
Properties=species:S:1:pos:R:3:forces:R:3 energy=-186.33860140 pbc="F F F"
Al    -1.3848634610000001    2.54844862    -1.120498891    0.075232    0.042844    0.013877
Al    -0.12212835500000002    -0.017464594    -2.123754774    0.332949    0.056292    -0.043272
Al    -2.013092376    -0.349335318    -0.491900037    -0.412125    -0.066778    0.09545
F    -0.584072341    3.656260036    0.03257374299999999    0.057158    0.067058    0.077291
F    -2.636937447    3.192275193    -2.349096392    -0.126153    0.055021    -0.120991
F    -1.11704008    -1.684361627    -1.629969961    -0.00202    -0.080108    -0.019753
F    -2.4020863620000004    1.4407766830000002    0.05482856199999999    -0.052272    -0.035446    0.079413
F    -3.2124427630000003    -1.3072132319999998    0.510831053    -0.05052    -0.043562    0.077817
F    1.0865379979999998    -0.535330541    -3.344871904    0.090595    -0.026915    -0.116184
F    0.032216474999999994    1.877856114    -2.128467831    0.057478    -0.010008    -0.038944
F    -2.109787957    0.48318295099999997    -2.303258028    -0.166853    0.01398    -0.044271
F    -0.14997436800000002    0.12549723899999998    -0.18969920799999998    0.196532    0.027624    0.039567
