      12
SCF Done            -167.48889958
Al           -1.689919389         2.561445885        -1.240678806
Al           -0.426661170        -0.005282796        -2.241519156
Al           -2.317698986        -0.335773512        -0.609475449
F            -0.840297880         3.668121111        -0.069082573
F            -2.892958970         3.202161666        -2.450500119
F            -1.372393288        -1.673782237        -1.727565554
F            -2.658000480         1.452545310        -0.045225815
F            -3.467991130        -1.295129546         0.412837564
F             0.831133090        -0.525930660        -3.443232600
F            -0.223616693         1.888104922        -2.228729722
F            -2.365417757         0.493159951        -2.402562428
F            -0.405673763         0.137241180        -0.288631588
