12
Properties=species:S:1:pos:R:3:forces:R:3 energy=-185.74351230 pbc="F F F"
Al    -1.661998761    2.56643002    -1.281589891    -0.078286    -0.193748    -0.107264
Al    -0.783396455    -0.123759894    -2.1797703740000003    -1.478682    -0.133276    1.57177
Al    -2.2724497759999998    -0.287291818    -0.33220673700000003    1.398665    0.452166    -1.585565
F    -0.7309504410000001    3.6853644360000004    -0.201884057    -0.048945    -0.075237    -0.058556
F    -2.9987294469999997    3.192231293    -2.3446006919999998    -0.051715    0.129872    -0.023048
F    -1.14720268    -1.8230528270000002    -2.012373361    -0.012895    -2.377885    -0.452664
F    -2.584174462    1.3628067830000001    0.164881962    -0.587349    0.342388    0.950346
F    -3.4159338630000002    -1.408155832    0.786262053    0.667973    0.633864    -0.711013
F    0.301605998    -0.413998141    -3.286455004    -0.736753    0.348052    0.830405
F    -0.33226042499999997    2.043775014    -2.354109231    0.802561    0.625185    -0.574813
F    -2.112415157    0.556891051    -2.692164928    0.043324    0.065267    0.051581
F    -0.03724806800000002    0.22809863900000002    -0.657485308    0.082102    0.183353    0.10882
