      12
SCF Done            -185.74351230
Al           -1.704952761         2.557691020        -1.234456891
Al           -0.576502455        -0.011944894        -2.299990374
Al           -2.157308776        -0.333583818        -0.565357737
F            -0.762299441         3.678986436        -0.167485057
F            -3.022555447         3.187383293        -2.318456692
F            -1.378794680        -1.870171827        -1.758245361
F            -2.570107462         1.477059783         0.125472962
F            -3.184251863        -1.242132832         0.535321053
F             0.551621998        -0.482013141        -3.564086004
F            -0.274577425         1.944120014        -2.393432231
F            -2.462005157         0.485761051        -2.308555928
F            -0.286904068         0.177302639        -0.383536308
