      12
SCF Done            -186.52992526
Al           -0.331216438         0.819717160        -1.827387536
Al           -0.428671514         1.108062053         1.270111036
Al           -3.069896519         0.625684489        -1.839860942
F            -3.581879061         0.406236208        -3.577374708
F            -1.542968157        -0.619986101        -1.752733245
F            -1.792091487         2.074027003        -1.973153383
F            -2.057250325         0.883791339         0.460470224
F             0.644581127         1.071318843        -0.311399111
F            -0.087615575         2.794875997         1.875961347
F             0.205625515        -0.376238458         2.135415045
F            -4.355410292         0.585272070        -0.555802365
F             0.807859827         0.842481337        -3.248242029
