      12
SCF Done            -168.21411278
Al           -0.321878838         0.809593960        -1.820773136
Al           -0.453464981         1.157108491         1.275019001
Al           -3.053970903         0.586332478        -1.850970009
F            -3.551348655         0.340311336        -3.589025361
F            -1.520573758        -0.637965304        -1.730486938
F            -1.792880293         2.050123789        -1.998808761
F            -2.067301377         0.897255455         0.455954909
F             0.636387616         1.096246097        -0.300939175
F            -0.129862581         2.848876004         1.854350971
F             0.190668008        -0.315264871         2.170189358
F            -4.351474167         0.561717726        -0.572564913
F             0.826675019         0.820987703        -3.236026844
