12
-187.24475565
Al		0.349214913		-0.596903253		1.743031111
Al		2.354032993		-1.789765342		-0.520486015
Al		-0.89594656		-1.831503871		-0.99394888
F		3.47854451		-0.493065609		-1.114140719
F		-1.836624452		-0.561326774		-1.888464097
F		2.73737872		-3.566345287		-0.491685829
F		-1.226776548		-3.617255769		-1.069191092
F		1.898515569		-1.415743472		1.213112728
F		0.832212059		-1.507258103		-1.492141244
F		0.1083693		-1.17399207		3.447135599
F		0.406440344		1.138341002		1.197248003
F		-0.96344265		-1.452498761		0.79617751
