12
-187.24475565
Al		0.349151485		-0.596532203		1.743433787
Al		2.354576013		-1.789922494		-0.520644865
Al		-0.896417572		-1.831674045		-0.994255456
F		3.478911556		-0.492563273		-1.114350183
F		-1.836929006		-0.560833064		-1.888771401
F		2.737462002		-3.566961227		-0.491658327
F		-1.226848698		-3.617873705		-1.069186234
F		1.898791811		-1.415861032		1.21346524
F		0.832273889		-1.507068137		-1.49258241
F		0.108285846		-1.174242936		3.447730571
F		0.406464154		1.138830946		1.197041377
F		-0.963804924		-1.452624521		0.796437002
