12
-187.24475565
Al		0.349088057		-0.596161153		1.743836463
Al		2.355119033		-1.790079646		-0.520803715
Al		-0.896888584		-1.831844219		-0.994562032
F		3.479278602		-0.492060937		-1.114559647
F		-1.83723356		-0.560339354		-1.889078705
F		2.737545284		-3.567577167		-0.491630825
F		-1.226920848		-3.618491641		-1.069181376
F		1.899068053		-1.415978592		1.213817752
F		0.832335719		-1.506878171		-1.493023576
F		0.108202392		-1.174493802		3.448325543
F		0.406487964		1.13932089		1.196834751
F		-0.964167198		-1.452750281		0.796696494
