12
-187.24475565
Al		0.348897773		-0.595048003		1.745044491
Al		2.356748093		-1.790551102		-0.521280265
Al		-0.89830162		-1.832354741		-0.99548176
F		3.48037974		-0.490553929		-1.115188039
F		-1.838147222		-0.558858224		-1.890000617
F		2.73779513		-3.569424987		-0.491548319
F		-1.227137298		-3.620345449		-1.069166802
F		1.899896779		-1.416331272		1.214875288
F		0.832521209		-1.506308273		-1.494347074
F		0.10795203		-1.1752464		3.450110459
F		0.406559394		1.140790722		1.196214873
F		-0.96525402		-1.453127561		0.79747497
