12
-187.24475565
Al		0.348802631		-0.594491428		1.745648505
Al		2.357562623		-1.79078683		-0.52151854
Al		-0.899008138		-1.832610002		-0.995941624
F		3.480930309		-0.489800425		-1.115502235
F		-1.838604053		-0.558117659		-1.890461573
F		2.737920053		-3.570348897		-0.491507066
F		-1.227245523		-3.621272353		-1.069159515
F		1.900311142		-1.416507612		1.215404056
F		0.832613954		-1.506023324		-1.495008823
F		0.107826849		-1.175622699		3.451002917
F		0.406595109		1.141525638		1.195904934
F		-0.965797431		-1.453316201		0.797864208
