12
-187.24475565
Al		0.348770917		-0.594305903		1.745849843
Al		2.357834133		-1.790865406		-0.521597965
Al		-0.899243644		-1.832695089		-0.996094912
F		3.481113832		-0.489549257		-1.115606967
F		-1.83875633		-0.557870804		-1.890615225
F		2.737961694		-3.570656867		-0.491493315
F		-1.227281598		-3.621581321		-1.069157086
F		1.900449263		-1.416566392		1.215580312
F		0.832644869		-1.505928341		-1.495229406
F		0.107785122		-1.175748132		3.451300403
F		0.406607014		1.14177061		1.195801621
F		-0.965978568		-1.453379081		0.797993954
