12
-187.24475565
Al		0.348707489		-0.593934853		1.746252519
Al		2.358377153		-1.791022558		-0.521756815
Al		-0.899714656		-1.832865263		-0.996401488
F		3.481480878		-0.489046921		-1.115816431
F		-1.839060884		-0.557377094		-1.890922529
F		2.738044976		-3.571272807		-0.491465813
F		-1.227353748		-3.622199257		-1.069152228
F		1.900725505		-1.416683952		1.215932824
F		0.832706699		-1.505738375		-1.495670572
F		0.107701668		-1.175998998		3.451895375
F		0.406630824		1.142260554		1.195594995
F		-0.966340842		-1.453504841		0.798253446
