12
-187.24475565
Al		0.348612347		-0.593378278		1.746856533
Al		2.359191683		-1.791258286		-0.52199509
Al		-0.900421174		-1.833120524		-0.996861352
F		3.482031447		-0.488293417		-1.116130627
F		-1.839517715		-0.556636529		-1.891383485
F		2.738169899		-3.572196717		-0.49142456
F		-1.227461973		-3.623126161		-1.069144941
F		1.901139868		-1.416860292		1.216461592
F		0.832799444		-1.505453426		-1.496332321
F		0.107576487		-1.176375297		3.452787833
F		0.406666539		1.14299547		1.195285056
F		-0.966884253		-1.453693481		0.798642684
