12
-187.24475565
Al		0.348422063		-0.592265128		1.748064561
Al		2.360820743		-1.791729742		-0.52247164
Al		-0.90183421		-1.833631046		-0.99778108
F		3.483132585		-0.486786409		-1.116759019
F		-1.840431377		-0.555155399		-1.892305397
F		2.738419745		-3.574044537		-0.491342054
F		-1.227678423		-3.624979969		-1.069130367
F		1.901968594		-1.417212972		1.217519128
F		0.832984934		-1.504883528		-1.497655819
F		0.107326125		-1.177127895		3.454572749
F		0.406737969		1.144465302		1.194665178
F		-0.967971075		-1.454070761		0.79942116
