12
-187.24475565
Al		0.348358635		-0.591894078		1.748467237
Al		2.361363763		-1.791886894		-0.52263049
Al		-0.902305222		-1.83380122		-0.998087656
F		3.483499631		-0.486284073		-1.116968483
F		-1.840735931		-0.554661689		-1.892612701
F		2.738503027		-3.574660477		-0.491314552
F		-1.227750573		-3.625597905		-1.069125509
F		1.902244836		-1.417330532		1.21787164
F		0.833046764		-1.504693562		-1.498096985
F		0.107242671		-1.177378761		3.455167721
F		0.406761779		1.144955246		1.194458552
F		-0.968333349		-1.454196521		0.799680652
