12
-187.24475565
Al		0.348295207		-0.591523028		1.748869913
Al		2.361906783		-1.792044046		-0.52278934
Al		-0.902776234		-1.833971394		-0.998394232
F		3.483866677		-0.485781737		-1.117177947
F		-1.841040485		-0.554167979		-1.892920005
F		2.738586309		-3.575276417		-0.49128705
F		-1.227822723		-3.626215841		-1.069120651
F		1.902521078		-1.417448092		1.218224152
F		0.833108594		-1.504503596		-1.498538151
F		0.107159217		-1.177629627		3.455762693
F		0.406785589		1.14544519		1.194251926
F		-0.968695623		-1.454322281		0.799940144
