12
-187.24475565
Al		0.348168351		-0.590780928		1.749675265
Al		2.362992823		-1.79235835		-0.52310704
Al		-0.903718258		-1.834311742		-0.999007384
F		3.484600769		-0.484777065		-1.117596875
F		-1.841649593		-0.553180559		-1.893534613
F		2.738752873		-3.576508297		-0.491232046
F		-1.227967023		-3.627451713		-1.069110935
F		1.903073562		-1.417683212		1.218929176
F		0.833232254		-1.504123664		-1.499420483
F		0.106992309		-1.178131359		3.456952637
F		0.406833209		1.146425078		1.193838674
F		-0.969420171		-1.454573801		0.800459128
