12
-187.24475565
Al		0.348073209		-0.590224353		1.750279279
Al		2.363807353		-1.792594078		-0.523345315
Al		-0.904424776		-1.834567003		-0.999467248
F		3.485151338		-0.484023561		-1.117911071
F		-1.842106424		-0.552439994		-1.893995569
F		2.738877796		-3.577432207		-0.491190793
F		-1.228075248		-3.628378617		-1.069103648
F		1.903487925		-1.417859552		1.219457944
F		0.833324999		-1.503838715		-1.500082232
F		0.106867128		-1.178507658		3.457845095
F		0.406868924		1.147159994		1.193528735
F		-0.969963582		-1.454762441		0.800848366
