12
-187.24475565
Al		0.349468625		-0.598387453		1.741420407
Al		2.351860913		-1.789136734		-0.519850615
Al		-0.894062512		-1.830823175		-0.992722576
F		3.477076326		-0.495074953		-1.113302863
F		-1.835406236		-0.563301614		-1.887234881
F		2.737045592		-3.563881527		-0.491795837
F		-1.226487948		-3.614784025		-1.069210524
F		1.897410601		-1.415273232		1.21170268
F		0.831964739		-1.508017967		-1.49037658
F		0.108703116		-1.172988606		3.444755711
F		0.406345104		1.136381226		1.198074507
F		-0.961993554		-1.451995721		0.795139542
