12
-187.24475565
Al		0.348041495		-0.590038828		1.750480617
Al		2.364078863		-1.792672654		-0.52342474
Al		-0.904660282		-1.83465209		-0.999620536
F		3.485334861		-0.483772393		-1.118015803
F		-1.842258701		-0.552193139		-1.894149221
F		2.738919437		-3.577740177		-0.491177042
F		-1.228111323		-3.628687585		-1.069101219
F		1.903626046		-1.417918332		1.2196342
F		0.833355914		-1.503743732		-1.500302815
F		0.106825401		-1.178633091		3.458142581
F		0.406880829		1.147404966		1.193425422
F		-0.970144719		-1.454825321		0.800978112
