12
-187.24475565
Al		0.347882925		-0.589111203		1.751487307
Al		2.365436413		-1.793065534		-0.523821865
Al		-0.905837812		-1.835077525		-1.000386976
F		3.486252476		-0.482516553		-1.118539463
F		-1.843020086		-0.550958864		-1.894917481
F		2.739127642		-3.579280027		-0.491108287
F		-1.228291698		-3.630232425		-1.069089074
F		1.904316651		-1.418212232		1.22051548
F		0.833510489		-1.503268817		-1.50140573
F		0.106616766		-1.179260256		3.459630011
F		0.406940354		1.148629826		1.192908857
F		-0.971050404		-1.455139721		0.801626842
