12
-187.24475565
Al		0.347819497		-0.588740153		1.751889983
Al		2.365979433		-1.793222686		-0.523980715
Al		-0.906308824		-1.835247699		-1.000693552
F		3.486619522		-0.482014217		-1.118748927
F		-1.84332464		-0.550465154		-1.895224785
F		2.739210924		-3.579895967		-0.491080785
F		-1.228363848		-3.630850361		-1.069084216
F		1.904592893		-1.418329792		1.220867992
F		0.833572319		-1.503078851		-1.501846896
F		0.106533312		-1.179511122		3.460224983
F		0.406964164		1.14911977		1.192702231
F		-0.971412678		-1.455265481		0.801886334
