12
-187.24475565
Al		0.349436911		-0.598201928		1.741621745
Al		2.352132423		-1.78921531		-0.51993004
Al		-0.894298018		-1.830908262		-0.992875864
F		3.477259849		-0.494823785		-1.113407595
F		-1.835558513		-0.563054759		-1.887388533
F		2.737087233		-3.564189497		-0.491782086
F		-1.226524023		-3.615092993		-1.069208095
F		1.897548722		-1.415332012		1.211878936
F		0.831995654		-1.507922984		-1.490597163
F		0.108661389		-1.173114039		3.445053197
F		0.406357009		1.136626198		1.197971194
F		-0.962174691		-1.452058601		0.795269288
