12
-187.24475565
Al		0.347692641		-0.587998053		1.752695335
Al		2.367065473		-1.79353699		-0.524298415
Al		-0.907250848		-1.835588047		-1.001306704
F		3.487353614		-0.481009545		-1.119167855
F		-1.843933748		-0.549477734		-1.895839393
F		2.739377488		-3.581127847		-0.491025781
F		-1.228508148		-3.632086233		-1.0690745
F		1.905145377		-1.418564912		1.221573016
F		0.833695979		-1.502698919		-1.502729228
F		0.106366404		-1.180012854		3.461414927
F		0.407011784		1.150099658		1.192288979
F		-0.972137226		-1.455517001		0.802405318
