12
-187.24475565
Al		0.347660927		-0.587812528		1.752896673
Al		2.367336983		-1.793615566		-0.52437784
Al		-0.907486354		-1.835673134		-1.001459992
F		3.487537137		-0.480758377		-1.119272587
F		-1.844086025		-0.549230879		-1.895993045
F		2.739419129		-3.581435817		-0.49101203
F		-1.228544223		-3.632395201		-1.069072071
F		1.905283498		-1.418623692		1.221749272
F		0.833726894		-1.502603936		-1.502949811
F		0.106324677		-1.180138287		3.461712413
F		0.407023689		1.15034463		1.192185666
F		-0.972318363		-1.455579881		0.802535064
