12
-187.24475565
Al		0.347597499		-0.587441478		1.753299349
Al		2.367880003		-1.793772718		-0.52453669
Al		-0.907957366		-1.835843308		-1.001766568
F		3.487904183		-0.480256041		-1.119482051
F		-1.844390579		-0.548737169		-1.896300349
F		2.739502411		-3.582051757		-0.490984528
F		-1.228616373		-3.633013137		-1.069067213
F		1.90555974		-1.418741252		1.222101784
F		0.833788724		-1.50241397		-1.503390977
F		0.106241223		-1.180389153		3.462307385
F		0.407047499		1.150834574		1.19197904
F		-0.972680637		-1.455705641		0.802794556
