12
-187.24475565
Al		0.347438929		-0.586513853		1.754306039
Al		2.369237553		-1.794165598		-0.524933815
Al		-0.909134896		-1.836268743		-1.002533008
F		3.488821798		-0.479000201		-1.120005711
F		-1.845151964		-0.547502894		-1.897068609
F		2.739710616		-3.583591607		-0.490915773
F		-1.228796748		-3.634557977		-1.069055068
F		1.906250345		-1.419035152		1.222983064
F		0.833943299		-1.501939055		-1.504493892
F		0.106032588		-1.181016318		3.463794815
F		0.407107024		1.152059434		1.191462475
F		-0.973586322		-1.456020041		0.803443286
