12
-187.24475565
Al		0.347280359		-0.585586228		1.755312729
Al		2.370595103		-1.794558478		-0.52533094
Al		-0.910312426		-1.836694178		-1.003299448
F		3.489739413		-0.477744361		-1.120529371
F		-1.845913349		-0.546268619		-1.897836869
F		2.739918821		-3.585131457		-0.490847018
F		-1.228977123		-3.636102817		-1.069042923
F		1.90694095		-1.419329052		1.223864344
F		0.834097874		-1.50146414		-1.505596807
F		0.105823953		-1.181643483		3.465282245
F		0.407166549		1.153284294		1.19094591
F		-0.974492007		-1.456334441		0.804092016
