12
-187.24475565
Al		0.347185217		-0.585029653		1.755916743
Al		2.371409633		-1.794794206		-0.525569215
Al		-0.911018944		-1.836949439		-1.003759312
F		3.490289982		-0.476990857		-1.120843567
F		-1.84637018		-0.545528054		-1.898297825
F		2.740043744		-3.586055367		-0.490805765
F		-1.229085348		-3.637029721		-1.069035636
F		1.907355313		-1.419505392		1.224393112
F		0.834190619		-1.501179191		-1.506258556
F		0.105698772		-1.182019782		3.466174703
F		0.407202264		1.15401921		1.190635971
F		-0.975035418		-1.456523081		0.804481254
