12
-187.24475565
Al		0.347121789		-0.584658603		1.756319419
Al		2.371952653		-1.794951358		-0.525728065
Al		-0.911489956		-1.837119613		-1.004065888
F		3.490657028		-0.476488521		-1.121053031
F		-1.846674734		-0.545034344		-1.898605129
F		2.740127026		-3.586671307		-0.490778263
F		-1.229157498		-3.637647657		-1.069030778
F		1.907631555		-1.419622952		1.224745624
F		0.834252449		-1.500989225		-1.506699722
F		0.105615318		-1.182270648		3.466769675
F		0.407226074		1.154509154		1.190429345
F		-0.975397692		-1.456648841		0.804740746
