12
-187.24475565
Al		0.346646079		-0.581875728		1.759339489
Al		2.376025303		-1.796129998		-0.52691944
Al		-0.915022546		-1.838395918		-1.006365208
F		3.493409873		-0.472721001		-1.122624011
F		-1.848958889		-0.541331519		-1.900909909
F		2.740751641		-3.591290857		-0.490571998
F		-1.229698623		-3.642282177		-1.068994343
F		1.90970337		-1.420504652		1.227389464
F		0.834716174		-1.49956448		-1.510008467
F		0.104989413		-1.184152143		3.471231965
F		0.407404649		1.158183734		1.18887965
F		-0.978114747		-1.457592041		0.806686936
