12
-187.24475565
Al		0.346582651		-0.581504678		1.759742165
Al		2.376568323		-1.79628715		-0.52707829
Al		-0.915493558		-1.838566092		-1.006671784
F		3.493776919		-0.472218665		-1.122833475
F		-1.849263443		-0.540837809		-1.901217213
F		2.740834923		-3.591906797		-0.490544496
F		-1.229770773		-3.642900113		-1.068989485
F		1.909979612		-1.420622212		1.227741976
F		0.834778004		-1.499374514		-1.510449633
F		0.104905959		-1.184403009		3.471826937
F		0.407428459		1.158673678		1.188673024
F		-0.978477021		-1.457717801		0.806946428
