12
-187.24475565
Al		0.346550937		-0.581319153		1.759943503
Al		2.376839833		-1.796365726		-0.527157715
Al		-0.915729064		-1.838651179		-1.006825072
F		3.493960442		-0.471967497		-1.122938207
F		-1.84941572		-0.540590954		-1.901370865
F		2.740876564		-3.592214767		-0.490530745
F		-1.229806848		-3.643209081		-1.068987056
F		1.910117733		-1.420680992		1.227918232
F		0.834808919		-1.499279531		-1.510670216
F		0.104864232		-1.184528442		3.472124423
F		0.407440364		1.15891865		1.188569711
F		-0.978658158		-1.457780681		0.807076174
