12
-187.24475565
Al		0.349976049		-0.601355853		1.738198999
Al		2.347516753		-1.787879518		-0.518579815
Al		-0.890294416		-1.829461783		-0.990269968
F		3.474139958		-0.499093641		-1.111627151
F		-1.832969804		-0.567251294		-1.884776449
F		2.736379336		-3.558954007		-0.492015853
F		-1.225910748		-3.609840537		-1.069249388
F		1.895200665		-1.414332752		1.208882584
F		0.831470099		-1.509537695		-1.486847252
F		0.109370748		-1.170981678		3.439995935
F		0.406154624		1.132461674		1.199727515
F		-0.959095362		-1.450989641		0.793063606
