12
-187.24475565
Al		0.350039477		-0.601726903		1.737796323
Al		2.346973733		-1.787722366		-0.518420965
Al		-0.889823404		-1.829291609		-0.989963392
F		3.473772912		-0.499595977		-1.111417687
F		-1.83266525		-0.567745004		-1.884469145
F		2.736296054		-3.558338067		-0.492043355
F		-1.225838598		-3.609222601		-1.069254246
F		1.894924423		-1.414215192		1.208530072
F		0.831408269		-1.509727661		-1.486406086
F		0.109454202		-1.170730812		3.439400963
F		0.406130814		1.13197173		1.199934141
F		-0.958733088		-1.450863881		0.792804114
