12
-187.24475565
Al		0.350166333		-0.602469003		1.736990971
Al		2.345887693		-1.787408062		-0.518103265
Al		-0.88888138		-1.828951261		-0.98935024
F		3.47303882		-0.500600649		-1.110998759
F		-1.832056142		-0.568732424		-1.883854537
F		2.73612949		-3.557106187		-0.492098359
F		-1.225694298		-3.607986729		-1.069263962
F		1.894371939		-1.413980072		1.207825048
F		0.831284609		-1.510107593		-1.485523754
F		0.10962111		-1.17022908		3.438211019
F		0.406083194		1.130991842		1.200347393
F		-0.95800854		-1.450612361		0.79228513
