12
-187.24475565
Al		0.349690623		-0.599686128		1.740011041
Al		2.349960343		-1.788586702		-0.51929464
Al		-0.89241397		-1.830227566		-0.99164956
F		3.475791665		-0.496833129		-1.112569739
F		-1.834340297		-0.565029599		-1.886159317
F		2.736754105		-3.561725737		-0.491892094
F		-1.226235423		-3.612621249		-1.069227527
F		1.896443754		-1.414861772		1.210468888
F		0.831748334		-1.508682848		-1.488832499
F		0.108995205		-1.172110575		3.442673309
F		0.406261769		1.134666422		1.198797698
F		-0.960725595		-1.451555561		0.79423132
