12
-187.24475565
Al		0.350356617		-0.603582153		1.735782943
Al		2.344258633		-1.786936606		-0.517626715
Al		-0.887468344		-1.828440739		-0.988430512
F		3.471937682		-0.502107657		-1.110370367
F		-1.83114248		-0.570213554		-1.882932625
F		2.735879644		-3.555258367		-0.492180865
F		-1.225477848		-3.606132921		-1.069278536
F		1.893543213		-1.413627392		1.206767512
F		0.831099119		-1.510677491		-1.484200256
F		0.109871472		-1.169476482		3.436426103
F		0.406011764		1.12952201		1.200967271
F		-0.956921718		-1.450235081		0.791506654
