12
-187.24475565
Al		0.350420045		-0.603953203		1.735380267
Al		2.343715613		-1.786779454		-0.517467865
Al		-0.886997332		-1.828270565		-0.988123936
F		3.471570636		-0.502609993		-1.110160903
F		-1.830837926		-0.570707264		-1.882625321
F		2.735796362		-3.554642427		-0.492208367
F		-1.225405698		-3.605514985		-1.069283394
F		1.893266971		-1.413509832		1.206415
F		0.831037289		-1.510867457		-1.48375909
F		0.109954926		-1.169225616		3.435831131
F		0.405987954		1.129032066		1.201173897
F		-0.956559444		-1.450109321		0.791247162
