12
-187.24475565
Al		0.350578615		-0.604880828		1.734373577
Al		2.342358063		-1.786386574		-0.51707074
Al		-0.885819802		-1.82784513		-0.987357496
F		3.470653021		-0.503865833		-1.109637243
F		-1.830076541		-0.571941539		-1.881857061
F		2.735588157		-3.553102577		-0.492277122
F		-1.225225323		-3.603970145		-1.069295539
F		1.892576366		-1.413215932		1.20553372
F		0.830882714		-1.511342372		-1.482656175
F		0.110163561		-1.168598451		3.434343701
F		0.405928429		1.127807206		1.201690462
F		-0.955653759		-1.449794921		0.790598432
