12
-187.24475565
Al		0.350642043		-0.605251878		1.733970901
Al		2.341815043		-1.786229422		-0.51691189
Al		-0.88534879		-1.827674956		-0.98705092
F		3.470285975		-0.504368169		-1.109427779
F		-1.829771987		-0.572435249		-1.881549757
F		2.735504875		-3.552486637		-0.492304624
F		-1.225153173		-3.603352209		-1.069300397
F		1.892300124		-1.413098372		1.205181208
F		0.830820884		-1.511532338		-1.482215009
F		0.110247015		-1.168347585		3.433748729
F		0.405904619		1.127317262		1.201897088
F		-0.955291485		-1.449669161		0.79033894
