12
-187.24475565
Al		0.350705471		-0.605622928		1.733568225
Al		2.341272023		-1.78607227		-0.51675304
Al		-0.884877778		-1.827504782		-0.986744344
F		3.469918929		-0.504870505		-1.109218315
F		-1.829467433		-0.572928959		-1.881242453
F		2.735421593		-3.551870697		-0.492332126
F		-1.225081023		-3.602734273		-1.069305255
F		1.892023882		-1.412980812		1.204828696
F		0.830759054		-1.511722304		-1.481773843
F		0.110330469		-1.168096719		3.433153757
F		0.405880809		1.126827318		1.202103714
F		-0.954929211		-1.449543401		0.790079448
