12
-187.24475565
Al		0.350737185		-0.605808453		1.733366887
Al		2.341000513		-1.785993694		-0.516673615
Al		-0.884642272		-1.827419695		-0.986591056
F		3.469735406		-0.505121673		-1.109113583
F		-1.829315156		-0.573175814		-1.881088801
F		2.735379952		-3.551562727		-0.492345877
F		-1.225044948		-3.602425305		-1.069307684
F		1.891885761		-1.412922032		1.20465244
F		0.830728139		-1.511817287		-1.48155326
F		0.110372196		-1.167971286		3.432856271
F		0.405868904		1.126582346		1.202207027
F		-0.954748074		-1.449480521		0.789949702
