12
-187.24475565
Al		0.350800613		-0.606179503		1.732964211
Al		2.340457493		-1.785836542		-0.516514765
Al		-0.88417126		-1.827249521		-0.98628448
F		3.46936836		-0.505624009		-1.108904119
F		-1.829010602		-0.573669524		-1.880781497
F		2.73529667		-3.550946787		-0.492373379
F		-1.224972798		-3.601807369		-1.069312542
F		1.891609519		-1.412804472		1.204299928
F		0.830666309		-1.512007253		-1.481112094
F		0.11045565		-1.16772042		3.432261299
F		0.405845094		1.126092402		1.202413653
F		-0.9543858		-1.449354761		0.78969021
