12
-187.24475565
Al		0.350895755		-0.606736078		1.732360197
Al		2.339642963		-1.785600814		-0.51627649
Al		-0.883464742		-1.82699426		-0.985824616
F		3.468817791		-0.506377513		-1.108589923
F		-1.828553771		-0.574410089		-1.880320541
F		2.735171747		-3.550022877		-0.492414632
F		-1.224864573		-3.600880465		-1.069319829
F		1.891195156		-1.412628132		1.20377116
F		0.830573564		-1.512292202		-1.480450345
F		0.110580831		-1.167344121		3.431368841
F		0.405809379		1.125357486		1.202723592
F		-0.953842389		-1.449166121		0.789300972
