12
-187.24475565
Al		0.350990897		-0.607292653		1.731756183
Al		2.338828433		-1.785365086		-0.516038215
Al		-0.882758224		-1.826738999		-0.985364752
F		3.468267222		-0.507131017		-1.108275727
F		-1.82809694		-0.575150654		-1.879859585
F		2.735046824		-3.549098967		-0.492455885
F		-1.224756348		-3.599953561		-1.069327116
F		1.890780793		-1.412451792		1.203242392
F		0.830480819		-1.512577151		-1.479788596
F		0.110706012		-1.166967822		3.430476383
F		0.405773664		1.12462257		1.203033531
F		-0.953298978		-1.448977481		0.788911734
