12
-187.24475565
Al		0.351022611		-0.607478178		1.731554845
Al		2.338556923		-1.78528651		-0.51595879
Al		-0.882522718		-1.826653912		-0.985211464
F		3.468083699		-0.507382185		-1.108170995
F		-1.827944663		-0.575397509		-1.879705933
F		2.735005183		-3.548790997		-0.492469636
F		-1.224720273		-3.599644593		-1.069329545
F		1.890642672		-1.412393012		1.203066136
F		0.830449904		-1.512672134		-1.479568013
F		0.110747739		-1.166842389		3.430178897
F		0.405761759		1.124377598		1.203136844
F		-0.953117841		-1.448914601		0.788781988
