12
-187.24475565
Al		0.351054325		-0.607663703		1.731353507
Al		2.338285413		-1.785207934		-0.515879365
Al		-0.882287212		-1.826568825		-0.985058176
F		3.467900176		-0.507633353		-1.108066263
F		-1.827792386		-0.575644364		-1.879552281
F		2.734963542		-3.548483027		-0.492483387
F		-1.224684198		-3.599335625		-1.069331974
F		1.890504551		-1.412334232		1.20288988
F		0.830418989		-1.512767117		-1.47934743
F		0.110789466		-1.166716956		3.429881411
F		0.405749854		1.124132626		1.203240157
F		-0.952936704		-1.448851721		0.788652242
