12
-187.24475565
Al		0.351181181		-0.608405803		1.730548155
Al		2.337199373		-1.78489363		-0.515561665
Al		-0.881345188		-1.826228477		-0.984445024
F		3.467166084		-0.508638025		-1.107647335
F		-1.827183278		-0.576631784		-1.878937673
F		2.734796978		-3.547251147		-0.492538391
F		-1.224539898		-3.598099753		-1.06934169
F		1.889952067		-1.412099112		1.202184856
F		0.830295329		-1.513147049		-1.478465098
F		0.110956374		-1.166215224		3.428691467
F		0.405702234		1.123152738		1.203653409
F		-0.952212156		-1.448600201		0.788133258
