12
-187.24475565
Al		0.349785765		-0.600242703		1.739407027
Al		2.349145813		-1.788350974		-0.519056365
Al		-0.891707452		-1.829972305		-0.991189696
F		3.475241096		-0.497586633		-1.112255543
F		-1.833883466		-0.565770164		-1.885698361
F		2.736629182		-3.560801827		-0.491933347
F		-1.226127198		-3.611694345		-1.069234814
F		1.896029391		-1.414685432		1.20994012
F		0.831655589		-1.508967797		-1.48817075
F		0.109120386		-1.171734276		3.441780851
F		0.406226054		1.133931506		1.199107637
F		-0.960182184		-1.451366921		0.793842082
