12
-187.24475565
Al		0.351212895		-0.608591328		1.730346817
Al		2.336927863		-1.784815054		-0.51548224
Al		-0.881109682		-1.82614339		-0.984291736
F		3.466982561		-0.508889193		-1.107542603
F		-1.827031001		-0.576878639		-1.878784021
F		2.734755337		-3.546943177		-0.492552142
F		-1.224503823		-3.597790785		-1.069344119
F		1.889813946		-1.412040332		1.2020086
F		0.830264414		-1.513242032		-1.478244515
F		0.110998101		-1.166089791		3.428393981
F		0.405690329		1.122907766		1.203756722
F		-0.952031019		-1.448537321		0.788003512
