12
-187.24475565
Al		0.351276323		-0.608962378		1.729944141
Al		2.336384843		-1.784657902		-0.51532339
Al		-0.88063867		-1.825973216		-0.98398516
F		3.466615515		-0.509391529		-1.107333139
F		-1.826726447		-0.577372349		-1.878476717
F		2.734672055		-3.546327237		-0.492579644
F		-1.224431673		-3.597172849		-1.069348977
F		1.889537704		-1.411922772		1.201656088
F		0.830202584		-1.513431998		-1.477803349
F		0.111081555		-1.165838925		3.427799009
F		0.405666519		1.122417822		1.203963348
F		-0.951668745		-1.448411561		0.78774402
