12
-187.24475565
Al		0.351308037		-0.609147903		1.729742803
Al		2.336113333		-1.784579326		-0.515243965
Al		-0.880403164		-1.825888129		-0.983831872
F		3.466431992		-0.509642697		-1.107228407
F		-1.82657417		-0.577619204		-1.878323065
F		2.734630414		-3.546019267		-0.492593395
F		-1.224395598		-3.596863881		-1.069351406
F		1.889399583		-1.411863992		1.201479832
F		0.830171669		-1.513526981		-1.477582766
F		0.111123282		-1.165713492		3.427501523
F		0.405654614		1.12217285		1.204066661
F		-0.951487608		-1.448348681		0.787614274
