12
-187.24475565
Al		0.351339751		-0.609333428		1.729541465
Al		2.335841823		-1.78450075		-0.51516454
Al		-0.880167658		-1.825803042		-0.983678584
F		3.466248469		-0.509893865		-1.107123675
F		-1.826421893		-0.577866059		-1.878169413
F		2.734588773		-3.545711297		-0.492607146
F		-1.224359523		-3.596554913		-1.069353835
F		1.889261462		-1.411805212		1.201303576
F		0.830140754		-1.513621964		-1.477362183
F		0.111165009		-1.165588059		3.427204037
F		0.405642709		1.121927878		1.204169974
F		-0.951306471		-1.448285801		0.787484528
