12
-187.24475565
Al		0.351434893		-0.609890003		1.728937451
Al		2.335027293		-1.784265022		-0.514926265
Al		-0.87946114		-1.825547781		-0.98321872
F		3.4656979		-0.510647369		-1.106809479
F		-1.825965062		-0.578606624		-1.877708457
F		2.73446385		-3.544787387		-0.492648399
F		-1.224251298		-3.595628009		-1.069361122
F		1.888847099		-1.411628872		1.200774808
F		0.830048009		-1.513906913		-1.476700434
F		0.11129019		-1.16521176		3.426311579
F		0.405606994		1.121192962		1.204479913
F		-0.95076306		-1.448097161		0.78709529
