12
-187.24475565
Al		0.351688605		-0.611374203		1.727326747
Al		2.332855213		-1.783636414		-0.514290865
Al		-0.877577092		-1.824867085		-0.981992416
F		3.464229716		-0.512656713		-1.105971623
F		-1.824746846		-0.580581464		-1.876479241
F		2.734130722		-3.542323627		-0.492758407
F		-1.223962698		-3.593156265		-1.069380554
F		1.887742131		-1.411158632		1.19936476
F		0.829800689		-1.514666777		-1.47493577
F		0.111624006		-1.164208296		3.423931691
F		0.405511754		1.119233186		1.205306417
F		-0.949313964		-1.447594121		0.786057322
