12
-187.24475565
Al		0.351752033		-0.611745253		1.726924071
Al		2.332312193		-1.783479262		-0.514132015
Al		-0.87710608		-1.824696911		-0.98168584
F		3.46386267		-0.513159049		-1.105762159
F		-1.824442292		-0.581075174		-1.876171937
F		2.73404744		-3.541707687		-0.492785909
F		-1.223890548		-3.592538329		-1.069385412
F		1.887465889		-1.411041072		1.199012248
F		0.829738859		-1.514856743		-1.474494604
F		0.11170746		-1.16395743		3.423336719
F		0.405487944		1.118743242		1.205513043
F		-0.94895169		-1.447468361		0.78579783
