12
-187.24475565
Al		0.351974031		-0.613043928		1.725514705
Al		2.330411623		-1.78292923		-0.51357604
Al		-0.875457538		-1.824101302		-0.980612824
F		3.462578009		-0.514917225		-1.105029035
F		-1.823376353		-0.582803159		-1.875096373
F		2.733755953		-3.539551897		-0.492882166
F		-1.223638023		-3.590375553		-1.069402415
F		1.886499042		-1.410629612		1.197778456
F		0.829522454		-1.515521624		-1.472950523
F		0.111999549		-1.163079399		3.421254317
F		0.405404609		1.117028438		1.206236234
F		-0.947683731		-1.447028201		0.784889608
