12
-187.24475565
Al		0.352005745		-0.613229453		1.725313367
Al		2.330140113		-1.782850654		-0.513496615
Al		-0.875222032		-1.824016215		-0.980459536
F		3.462394486		-0.515168393		-1.104924303
F		-1.823224076		-0.583050014		-1.874942721
F		2.733714312		-3.539243927		-0.492895917
F		-1.223601948		-3.590066585		-1.069404844
F		1.886360921		-1.410570832		1.1976022
F		0.829491539		-1.515616607		-1.47272994
F		0.112041276		-1.162953966		3.420956831
F		0.405392704		1.116783466		1.206339547
F		-0.947502594		-1.446965321		0.784759862
