12
-187.24475565
Al		0.352132601		-0.613971553		1.724508015
Al		2.329054073		-1.78253635		-0.513178915
Al		-0.874280008		-1.823675867		-0.979846384
F		3.461660394		-0.516173065		-1.104505375
F		-1.822614968		-0.584037434		-1.874328113
F		2.733547748		-3.538012047		-0.492950921
F		-1.223457648		-3.588830713		-1.06941456
F		1.885808437		-1.410335712		1.196897176
F		0.829367879		-1.515996539		-1.471847608
F		0.112208184		-1.162452234		3.419766887
F		0.405345084		1.115803578		1.206752799
F		-0.946778046		-1.446713801		0.784240878
