12
-187.24475565
Al		0.352259457		-0.614713653		1.723702663
Al		2.327968033		-1.782222046		-0.512861215
Al		-0.873337984		-1.823335519		-0.979233232
F		3.460926302		-0.517177737		-1.104086447
F		-1.82200586		-0.585024854		-1.873713505
F		2.733381184		-3.536780167		-0.493005925
F		-1.223313348		-3.587594841		-1.069424276
F		1.885255953		-1.410100592		1.196192152
F		0.829244219		-1.516376471		-1.470965276
F		0.112375092		-1.161950502		3.418576943
F		0.405297464		1.11482369		1.207166051
F		-0.946053498		-1.446462281		0.783721894
