12
-187.24475565
Al		0.352291171		-0.614899178		1.723501325
Al		2.327696523		-1.78214347		-0.51278179
Al		-0.873102478		-1.823250432		-0.979079944
F		3.460742779		-0.517428905		-1.103981715
F		-1.821853583		-0.585271709		-1.873559853
F		2.733339543		-3.536472197		-0.493019676
F		-1.223277273		-3.587285873		-1.069426705
F		1.885117832		-1.410041812		1.196015896
F		0.829213304		-1.516471454		-1.470744693
F		0.112416819		-1.161825069		3.418279457
F		0.405285559		1.114578718		1.207269364
F		-0.945872361		-1.446399401		0.783592148
