12
-187.24475565
Al		0.352354599		-0.615270228		1.723098649
Al		2.327153503		-1.781986318		-0.51262294
Al		-0.872631466		-1.823080258		-0.978773368
F		3.460375733		-0.517931241		-1.103772251
F		-1.821549029		-0.585765419		-1.873252549
F		2.733256261		-3.535856257		-0.493047178
F		-1.223205123		-3.586667937		-1.069431563
F		1.88484159		-1.409924252		1.195663384
F		0.829151474		-1.51666142		-1.470303527
F		0.112500273		-1.161574203		3.417684485
F		0.405261749		1.114088774		1.20747599
F		-0.945510087		-1.446273641		0.783332656
