12
-187.24475565
Al		0.352418027		-0.615641278		1.722695973
Al		2.326610483		-1.781829166		-0.51246409
Al		-0.872160454		-1.822910084		-0.978466792
F		3.460008687		-0.518433577		-1.103562787
F		-1.821244475		-0.586259129		-1.872945245
F		2.733172979		-3.535240317		-0.49307468
F		-1.223132973		-3.586050001		-1.069436421
F		1.884565348		-1.409806692		1.195310872
F		0.829089644		-1.516851386		-1.469862361
F		0.112583727		-1.161323337		3.417089513
F		0.405237939		1.11359883		1.207682616
F		-0.945147813		-1.446147881		0.783073164
