12
-187.24475565
Al		0.352481455		-0.616012328		1.722293297
Al		2.326067463		-1.781672014		-0.51230524
Al		-0.871689442		-1.82273991		-0.978160216
F		3.459641641		-0.518935913		-1.103353323
F		-1.820939921		-0.586752839		-1.872637941
F		2.733089697		-3.534624377		-0.493102182
F		-1.223060823		-3.585432065		-1.069441279
F		1.884289106		-1.409689132		1.19495836
F		0.829027814		-1.517041352		-1.469421195
F		0.112667181		-1.161072471		3.416494541
F		0.405214129		1.113108886		1.207889242
F		-0.944785539		-1.446022121		0.782813672
