12
-187.24475565
Al		0.352608311		-0.616754428		1.721487945
Al		2.324981423		-1.78135771		-0.51198754
Al		-0.870747418		-1.822399562		-0.977547064
F		3.458907549		-0.519940585		-1.102934395
F		-1.820330813		-0.587740259		-1.872023333
F		2.732923133		-3.533392497		-0.493157186
F		-1.222916523		-3.584196193		-1.069450995
F		1.883736622		-1.409454012		1.194253336
F		0.828904154		-1.517421284		-1.468538863
F		0.112834089		-1.160570739		3.415304597
F		0.405166509		1.112128998		1.208302494
F		-0.944060991		-1.445770601		0.782294688
