12
-187.24475565
Al		0.352766881		-0.617682053		1.720481255
Al		2.323623873		-1.78096483		-0.511590415
Al		-0.869569888		-1.821974127		-0.976780624
F		3.457989934		-0.521196425		-1.102410735
F		-1.819569428		-0.588974534		-1.871255073
F		2.732714928		-3.531852647		-0.493225941
F		-1.222736148		-3.582651353		-1.06946314
F		1.883046017		-1.409160112		1.193372056
F		0.828749579		-1.517896199		-1.467435948
F		0.113042724		-1.159943574		3.413817167
F		0.405106984		1.110904138		1.208819059
F		-0.943155306		-1.445456201		0.781645958
