12
-186.56215295
Al		-0.360009292		1.034208869		-1.816925767
Al		-0.44727076		1.074453565		1.282024026
Al		-3.014708301		0.459722897		-1.856567966
F		-3.533259364		0.314315854		-3.604551415
F		-1.379360932		-0.562790825		-1.842428729
F		-1.947469734		2.065898889		-1.892564451
F		-2.035056205		0.715538335		0.455355643
F		0.594823451		1.26953323		-0.298116418
F		-0.301879043		2.738729032		1.990729939
F		0.366591901		-0.35435227		2.049720055
F		-4.279174635		0.210824113		-0.578508169
F		0.746344666		1.24629978		-3.233254173
