12
-186.56215295
Al		-0.358548948		1.034542145		-1.815999451
Al		-0.447050316		1.074503701		1.282154726
Al		-3.012812373		0.460148213		-1.855751514
F		-3.53382384		0.314160406		-3.606305471
F		-1.380146668		-0.563028469		-1.842481453
F		-1.948283058		2.065788889		-1.892619611
F		-2.035346397		0.715473055		0.455221219
F		0.594244191		1.269384842		-0.29933287
F		-0.301901611		2.738584824		1.990687091
F		0.366512153		-0.354231906		2.049672163
F		-4.280058587		0.210648981		-0.577674153
F		0.746101774		1.246251808		-3.233017129
