12
-186.56215295
Al		-0.35745369		1.034792102		-1.815304714
Al		-0.446884983		1.074541303		1.282252751
Al		-3.011390427		0.4604672		-1.855139175
F		-3.534247197		0.31404382		-3.607621013
F		-1.38073597		-0.563206702		-1.842520996
F		-1.948893051		2.065706389		-1.892660981
F		-2.035564041		0.715424095		0.455120401
F		0.593809746		1.269273551		-0.300245209
F		-0.301918537		2.738476668		1.990654955
F		0.366452342		-0.354141633		2.049636244
F		-4.280721551		0.210517632		-0.577048641
F		0.745919605		1.246215829		-3.232839346
