12
-186.56215295
Al		-0.357088604		1.034875421		-1.815073135
Al		-0.446829872		1.074553837		1.282285426
Al		-3.010916445		0.460573529		-1.854935062
F		-3.534388316		0.314004958		-3.608059527
F		-1.380932404		-0.563266113		-1.842534177
F		-1.949096382		2.065678889		-1.892674771
F		-2.035636589		0.715407775		0.455086795
F		0.593664931		1.269236454		-0.300549322
F		-0.301924179		2.738440616		1.990644243
F		0.366432405		-0.354111542		2.049624271
F		-4.280942539		0.210473849		-0.576840137
F		0.745858882		1.246203836		-3.232780085
