12
-186.56215295
Al		-0.363295066		1.033458998		-1.819009978
Al		-0.447766759		1.074340759		1.281729951
Al		-3.018974139		0.458765936		-1.858404983
F		-3.531989293		0.314665612		-3.600604789
F		-1.377593026		-0.562256126		-1.8423101
F		-1.945639755		2.066146389		-1.892440341
F		-2.034403273		0.715685215		0.455658097
F		0.596126786		1.269867103		-0.295379401
F		-0.301828265		2.7390535		1.990826347
F		0.366771334		-0.354623089		2.049827812
F		-4.277185743		0.21121816		-0.580384705
F		0.746891173		1.246407717		-3.233787522
