12
-186.56215295
Al		-0.356723518		1.03495874		-1.814841556
Al		-0.446774761		1.074566371		1.282318101
Al		-3.010442463		0.460679858		-1.854730949
F		-3.534529435		0.313966096		-3.608498041
F		-1.381128838		-0.563325524		-1.842547358
F		-1.949299713		2.065651389		-1.892688561
F		-2.035709137		0.715391455		0.455053189
F		0.593520116		1.269199357		-0.300853435
F		-0.301929821		2.738404564		1.990633531
F		0.366412468		-0.354081451		2.049612298
F		-4.281163527		0.210430066		-0.576631633
F		0.745798159		1.246191843		-3.232720824
