12
-186.56215295
Al		-0.355993346		1.035125378		-1.814378398
Al		-0.446664539		1.074591439		1.282383451
Al		-3.009494499		0.460892516		-1.854322723
F		-3.534811673		0.313888372		-3.609375069
F		-1.381521706		-0.563444346		-1.84257372
F		-1.949706375		2.065596389		-1.892716141
F		-2.035854233		0.715358815		0.454985977
F		0.593230486		1.269125163		-0.301461661
F		-0.301941105		2.73833246		1.990612107
F		0.366372594		-0.354021269		2.049588352
F		-4.281605503		0.2103425		-0.576214625
F		0.745676713		1.246167857		-3.232602302
