12
-186.56215295
Al		-0.35380283		1.035625292		-1.812988924
Al		-0.446333873		1.074666643		1.282579501
Al		-3.006650607		0.46153049		-1.853098045
F		-3.535658387		0.3136552		-3.612006153
F		-1.38270031		-0.563800812		-1.842652806
F		-1.950926361		2.065431389		-1.892798881
F		-2.036289521		0.715260895		0.454784341
F		0.592361596		1.268902581		-0.303286339
F		-0.301974957		2.738116148		1.990547835
F		0.366252972		-0.353840723		2.049516514
F		-4.282931431		0.210079802		-0.574963601
F		0.745312375		1.246095899		-3.232246736
