12
-186.56215295
Al		-0.3519774		1.036041887		-1.811831029
Al		-0.446058318		1.074729313		1.282742876
Al		-3.004280697		0.462062135		-1.85207748
F		-3.536363982		0.31346089		-3.614198723
F		-1.38368248		-0.564097867		-1.842718711
F		-1.951943016		2.065293889		-1.892867831
F		-2.036652261		0.715179295		0.454616311
F		0.591637521		1.268717096		-0.304806904
F		-0.302003167		2.737935888		1.990494275
F		0.366153287		-0.353690268		2.049456649
F		-4.284036371		0.209860887		-0.573921081
F		0.74500876		1.246035934		-3.231950431
