12
-186.56215295
Al		-0.351612314		1.036125206		-1.81159945
Al		-0.446003207		1.074741847		1.282775551
Al		-3.003806715		0.462168464		-1.851873367
F		-3.536505101		0.313422028		-3.614637237
F		-1.383878914		-0.564157278		-1.842731892
F		-1.952146347		2.065266389		-1.892881621
F		-2.036724809		0.715162975		0.454582705
F		0.591492706		1.268679999		-0.305111017
F		-0.302008809		2.737899836		1.990483563
F		0.36613335		-0.353660177		2.049444676
F		-4.284257359		0.209817104		-0.573712577
F		0.744948037		1.246023941		-3.23189117
