12
-186.56215295
Al		-0.350882142		1.036291844		-1.811136292
Al		-0.445892985		1.074766915		1.282840901
Al		-3.002858751		0.462381122		-1.851465141
F		-3.536787339		0.313344304		-3.615514265
F		-1.384271782		-0.5642761		-1.842758254
F		-1.952553009		2.065211389		-1.892909201
F		-2.036869905		0.715130335		0.454515493
F		0.591203076		1.268605805		-0.305719243
F		-0.302020093		2.737827732		1.990462139
F		0.366093476		-0.353599995		2.04942073
F		-4.284699335		0.209729538		-0.573295569
F		0.744826591		1.245999955		-3.231772648
