12
-186.56215295
Al		-0.349786884		1.036541801		-1.810441555
Al		-0.445727652		1.074804517		1.282938926
Al		-3.001436805		0.462700109		-1.850852802
F		-3.537210696		0.313227718		-3.616829807
F		-1.384861084		-0.564454333		-1.842797797
F		-1.953163002		2.065128889		-1.892950571
F		-2.037087549		0.715081375		0.454414675
F		0.590768631		1.268494514		-0.306631582
F		-0.302037019		2.737719576		1.990430003
F		0.366033665		-0.353509722		2.049384811
F		-4.285362299		0.209598189		-0.572670057
F		0.744644422		1.245963976		-3.231594865
