12
-186.56215295
Al		-0.349421798		1.03662512		-1.810209976
Al		-0.445672541		1.074817051		1.282971601
Al		-3.000962823		0.462806438		-1.850648689
F		-3.537351815		0.313188856		-3.617268321
F		-1.385057518		-0.564513744		-1.842810978
F		-1.953366333		2.065101389		-1.892964361
F		-2.037160097		0.715065055		0.454381069
F		0.590623816		1.268457417		-0.306935695
F		-0.302042661		2.737683524		1.990419291
F		0.366013728		-0.353479631		2.049372838
F		-4.285583287		0.209554406		-0.572461553
F		0.744583699		1.245951983		-3.231535604
