12
-186.56215295
Al		-0.349056712		1.036708439		-1.809978397
Al		-0.44561743		1.074829585		1.283004276
Al		-3.000488841		0.462912767		-1.850444576
F		-3.537492934		0.313149994		-3.617706835
F		-1.385253952		-0.564573155		-1.842824159
F		-1.953569664		2.065073889		-1.892978151
F		-2.037232645		0.715048735		0.454347463
F		0.590479001		1.26842032		-0.307239808
F		-0.302048303		2.737647472		1.990408579
F		0.365993791		-0.35344954		2.049360865
F		-4.285804275		0.209510623		-0.572253049
F		0.744522976		1.24593999		-3.231476343
