12
-186.56215295
Al		-0.34832654		1.036875077		-1.809515239
Al		-0.445507208		1.074854653		1.283069626
Al		-2.999540877		0.463125425		-1.85003635
F		-3.537775172		0.31307227		-3.618583863
F		-1.38564682		-0.564691977		-1.842850521
F		-1.953976326		2.065018889		-1.893005731
F		-2.037377741		0.715016095		0.454280251
F		0.590189371		1.268346126		-0.307848034
F		-0.302059587		2.737575368		1.990387155
F		0.365953917		-0.353389358		2.049336919
F		-4.286246251		0.209423057		-0.571836041
F		0.74440153		1.245916004		-3.231357821
