12
-186.56215295
Al		-0.362199808		1.033708955		-1.818315241
Al		-0.447601426		1.074378361		1.281827976
Al		-3.017552193		0.459084923		-1.857792644
F		-3.53241265		0.314549026		-3.601920331
F		-1.378182328		-0.562434359		-1.842349643
F		-1.946249748		2.066063889		-1.892481711
F		-2.034620917		0.715636255		0.455557279
F		0.595692341		1.269755812		-0.29629174
F		-0.301845191		2.738945344		1.990794211
F		0.366711523		-0.354532816		2.049791893
F		-4.277848707		0.211086811		-0.579759193
F		0.746709004		1.246371738		-3.233609739
