12
-186.56215295
Al		-0.345770938		1.03745831		-1.807894186
Al		-0.445121431		1.074942391		1.283298351
Al		-2.996223003		0.463869728		-1.848607559
F		-3.538763005		0.312800236		-3.621653461
F		-1.387021858		-0.565107854		-1.842942788
F		-1.955399643		2.064826389		-1.893102261
F		-2.037885577		0.714901855		0.454045009
F		0.589175666		1.268086447		-0.309976825
F		-0.302099081		2.737323004		1.990312171
F		0.365814358		-0.353178721		2.049253108
F		-4.287793167		0.209116576		-0.570376513
F		0.743976469		1.245832053		-3.230942994
