12
-186.56215295
Al		-0.34467568		1.037708267		-1.807199449
Al		-0.444956098		1.074979993		1.283396376
Al		-2.994801057		0.464188715		-1.84799522
F		-3.539186362		0.31268365		-3.622969003
F		-1.38761116		-0.565286087		-1.842982331
F		-1.956009636		2.064743889		-1.893143631
F		-2.038103221		0.714852895		0.453944191
F		0.588741221		1.267975156		-0.310889164
F		-0.302116007		2.737214848		1.990280035
F		0.365754547		-0.353088448		2.049217189
F		-4.288456131		0.208985227		-0.569751001
F		0.7437943		1.245796074		-3.230765211
