12
-186.56215295
Al		-0.341754992		1.038374819		-1.805346817
Al		-0.44451521		1.075080265		1.283657776
Al		-2.991009201		0.465039347		-1.846362316
F		-3.540315314		0.312372754		-3.626477115
F		-1.389182632		-0.565761375		-1.843087779
F		-1.957636284		2.064523889		-1.893253951
F		-2.038683605		0.714722335		0.453675343
F		0.587582701		1.26767838		-0.313322068
F		-0.302161143		2.736926432		1.990194339
F		0.365595051		-0.35284772		2.049121405
F		-4.290224035		0.208634963		-0.568082969
F		0.743308516		1.24570013		-3.230291123
