12
-186.56215295
Al		-0.340294648		1.038708095		-1.804420501
Al		-0.444294766		1.075130401		1.283788476
Al		-2.989113273		0.465464663		-1.845545864
F		-3.54087979		0.312217306		-3.628231171
F		-1.389968368		-0.565999019		-1.843140503
F		-1.958449608		2.064413889		-1.893309111
F		-2.038973797		0.714657055		0.453540919
F		0.587003441		1.267529992		-0.31453852
F		-0.302183711		2.736782224		1.990151491
F		0.365515303		-0.352727356		2.049073513
F		-4.291107987		0.208459831		-0.567248953
F		0.743065624		1.245652158		-3.230054079
