12
-186.56215295
Al		-0.339564476		1.038874733		-1.803957343
Al		-0.444184544		1.075155469		1.283853826
Al		-2.988165309		0.465677321		-1.845137638
F		-3.541162028		0.312139582		-3.629108199
F		-1.390361236		-0.566117841		-1.843166865
F		-1.95885627		2.064358889		-1.893336691
F		-2.039118893		0.714624415		0.453473707
F		0.586713811		1.267455798		-0.315146746
F		-0.302194995		2.73671012		1.990130067
F		0.365475429		-0.352667174		2.049049567
F		-4.291549963		0.208372265		-0.566831945
F		0.742944178		1.245628172		-3.229935557
