12
-186.56215295
Al		-0.33919939		1.038958052		-1.803725764
Al		-0.444129433		1.075168003		1.283886501
Al		-2.987691327		0.46578365		-1.844933525
F		-3.541303147		0.31210072		-3.629546713
F		-1.39055767		-0.566177252		-1.843180046
F		-1.959059601		2.064331389		-1.893350481
F		-2.039191441		0.714608095		0.453440101
F		0.586568996		1.267418701		-0.315450859
F		-0.302200637		2.736674068		1.990119355
F		0.365455492		-0.352637083		2.049037594
F		-4.291770951		0.208328482		-0.566623441
F		0.742883455		1.245616179		-3.229876296
