12
-186.56215295
Al		-0.338104132		1.039208009		-1.803031027
Al		-0.4439641		1.075205605		1.283984526
Al		-2.986269381		0.466102637		-1.844321186
F		-3.541726504		0.311984134		-3.630862255
F		-1.391146972		-0.566355485		-1.843219589
F		-1.959669594		2.064248889		-1.893391851
F		-2.039409085		0.714559135		0.453339283
F		0.586134551		1.26730741		-0.316363198
F		-0.302217563		2.736565912		1.990087219
F		0.365395681		-0.35254681		2.049001675
F		-4.292433915		0.208197133		-0.565997929
F		0.742701286		1.2455802		-3.229698513
