12
-186.56215295
Al		-0.337739046		1.039291328		-1.802799448
Al		-0.443908989		1.075218139		1.284017201
Al		-2.985795399		0.466208966		-1.844117073
F		-3.541867623		0.311945272		-3.631300769
F		-1.391343406		-0.566414896		-1.84323277
F		-1.959872925		2.064221389		-1.893405641
F		-2.039481633		0.714542815		0.453305677
F		0.585989736		1.267270313		-0.316667311
F		-0.302223205		2.73652986		1.990076507
F		0.365375744		-0.352516719		2.048989702
F		-4.292654903		0.20815335		-0.565789425
F		0.742640563		1.245568207		-3.229639252
