12
-186.56215295
Al		-0.33737396		1.039374647		-1.802567869
Al		-0.443853878		1.075230673		1.284049876
Al		-2.985321417		0.466315295		-1.84391296
F		-3.542008742		0.31190641		-3.631739283
F		-1.39153984		-0.566474307		-1.843245951
F		-1.960076256		2.064193889		-1.893419431
F		-2.039554181		0.714526495		0.453272071
F		0.585844921		1.267233216		-0.316971424
F		-0.302228847		2.736493808		1.990065795
F		0.365355807		-0.352486628		2.048977729
F		-4.292875891		0.208109567		-0.565580921
F		0.74257984		1.245556214		-3.229579991
