12
-186.56215295
Al		-0.336643788		1.039541285		-1.802104711
Al		-0.443743656		1.075255741		1.284115226
Al		-2.984373453		0.466527953		-1.843504734
F		-3.54229098		0.311828686		-3.632616311
F		-1.391932708		-0.566593129		-1.843272313
F		-1.960482918		2.064138889		-1.893447011
F		-2.039699277		0.714493855		0.453204859
F		0.585555291		1.267159022		-0.31757965
F		-0.302240131		2.736421704		1.990044371
F		0.365315933		-0.352426446		2.048953783
F		-4.293317867		0.208022001		-0.565163913
F		0.742458394		1.245532228		-3.229461469
