12
-186.56215295
Al		-0.336278702		1.039624604		-1.801873132
Al		-0.443688545		1.075268275		1.284147901
Al		-2.983899471		0.466634282		-1.843300621
F		-3.542432099		0.311789824		-3.633054825
F		-1.392129142		-0.56665254		-1.843285494
F		-1.960686249		2.064111389		-1.893460801
F		-2.039771825		0.714477535		0.453171253
F		0.585410476		1.267121925		-0.317883763
F		-0.302245773		2.736385652		1.990033659
F		0.365295996		-0.352396355		2.04894181
F		-4.293538855		0.207978218		-0.564955409
F		0.742397671		1.245520235		-3.229402208
