12
-186.56215295
Al		-0.334818358		1.03995788		-1.800946816
Al		-0.443468101		1.075318411		1.284278601
Al		-2.982003543		0.467059598		-1.842484169
F		-3.542996575		0.311634376		-3.634808881
F		-1.392914878		-0.566890184		-1.843338218
F		-1.961499573		2.064001389		-1.893515961
F		-2.040062017		0.714412255		0.453036829
F		0.584831216		1.266973537		-0.319100215
F		-0.302268341		2.736241444		1.989990811
F		0.365216248		-0.352275991		2.048893918
F		-4.294422807		0.207803086		-0.564121393
F		0.742154779		1.245472263		-3.229165164
