12
-186.56215295
Al		-0.3337231		1.040207837		-1.800252079
Al		-0.443302768		1.075356013		1.284376626
Al		-2.980581597		0.467378585		-1.84187183
F		-3.543419932		0.31151779		-3.636124423
F		-1.39350418		-0.567068417		-1.843377761
F		-1.962109566		2.063918889		-1.893557331
F		-2.040279661		0.714363295		0.452936011
F		0.584396771		1.266862246		-0.320012554
F		-0.302285267		2.736133288		1.989958675
F		0.365156437		-0.352185718		2.048857999
F		-4.295085771		0.207671737		-0.563495881
F		0.74197261		1.245436284		-3.228987381
