12
-186.56215295
Al		-0.332992928		1.040374475		-1.799788921
Al		-0.443192546		1.075381081		1.284441976
Al		-2.979633633		0.467591243		-1.841463604
F		-3.54370217		0.311440066		-3.637001451
F		-1.393897048		-0.567187239		-1.843404123
F		-1.962516228		2.063863889		-1.893584911
F		-2.040424757		0.714330655		0.452868799
F		0.584107141		1.266788052		-0.32062078
F		-0.302296551		2.736061184		1.989937251
F		0.365116563		-0.352125536		2.048834053
F		-4.295527747		0.207584171		-0.563078873
F		0.741851164		1.245412298		-3.228868859
