12
-186.56215295
Al		-0.33189767		1.040624432		-1.799094184
Al		-0.443027213		1.075418683		1.284540001
Al		-2.978211687		0.46791023		-1.840851265
F		-3.544125527		0.31132348		-3.638316993
F		-1.39448635		-0.567365472		-1.843443666
F		-1.963126221		2.063781389		-1.893626281
F		-2.040642401		0.714281695		0.452767981
F		0.583672696		1.266676761		-0.321533119
F		-0.302313477		2.735953028		1.989905115
F		0.365056752		-0.352035263		2.048798134
F		-4.296190711		0.207452822		-0.562453361
F		0.741668995		1.245376319		-3.228691076
