12
-186.56215295
Al		-0.331532584		1.040707751		-1.798862605
Al		-0.442972102		1.075431217		1.284572676
Al		-2.977737705		0.468016559		-1.840647152
F		-3.544266646		0.311284618		-3.638755507
F		-1.394682784		-0.567424883		-1.843456847
F		-1.963329552		2.063753889		-1.893640071
F		-2.040714949		0.714265375		0.452734375
F		0.583527881		1.266639664		-0.321837232
F		-0.302319119		2.735916976		1.989894403
F		0.365036815		-0.352005172		2.048786161
F		-4.296411699		0.207409039		-0.562244857
F		0.741608272		1.245364326		-3.228631815
