12
-186.56215295
Al		-0.331167498		1.04079107		-1.798631026
Al		-0.442916991		1.075443751		1.284605351
Al		-2.977263723		0.468122888		-1.840443039
F		-3.544407765		0.311245756		-3.639194021
F		-1.394879218		-0.567484294		-1.843470028
F		-1.963532883		2.063726389		-1.893653861
F		-2.040787497		0.714249055		0.452700769
F		0.583383066		1.266602567		-0.322141345
F		-0.302324761		2.735880924		1.989883691
F		0.365016878		-0.351975081		2.048774188
F		-4.296632687		0.207365256		-0.562036353
F		0.741547549		1.245352333		-3.228572554
