12
-186.56215295
Al		-0.330437326		1.040957708		-1.798167868
Al		-0.442806769		1.075468819		1.284670701
Al		-2.976315759		0.468335546		-1.840034813
F		-3.544690003		0.311168032		-3.640071049
F		-1.395272086		-0.567603116		-1.84349639
F		-1.963939545		2.063671389		-1.893681441
F		-2.040932593		0.714216415		0.452633557
F		0.583093436		1.266528373		-0.322749571
F		-0.302336045		2.73580882		1.989862267
F		0.364977004		-0.351914899		2.048750242
F		-4.297074663		0.20727769		-0.561619345
F		0.741426103		1.245328347		-3.228454032
