12
-186.56215295
Al		-0.328611896		1.041374303		-1.797009973
Al		-0.442531214		1.075531489		1.284834076
Al		-2.973945849		0.468867191		-1.839014248
F		-3.545395598		0.310973722		-3.642263619
F		-1.396254256		-0.567900171		-1.843562295
F		-1.9649562		2.063533889		-1.893750391
F		-2.041295333		0.714134815		0.452465527
F		0.582369361		1.266342888		-0.324270136
F		-0.302364255		2.73562856		1.989808707
F		0.364877319		-0.351764444		2.048690377
F		-4.298179603		0.207058775		-0.560576825
F		0.741122488		1.245268382		-3.228157727
