12
-186.56215295
Al		-0.368041184		1.032375851		-1.822020505
Al		-0.448483202		1.074177817		1.281305176
Al		-3.025135905		0.457383659		-1.861058452
F		-3.530154746		0.315170818		-3.594904107
F		-1.375039384		-0.561483783		-1.842138747
F		-1.942996452		2.066503889		-1.892261071
F		-2.033460149		0.715897375		0.456094975
F		0.598009381		1.270349364		-0.291425932
F		-0.301754919		2.739522176		1.990965603
F		0.367030515		-0.355014272		2.049983461
F		-4.274312899		0.211787339		-0.583095257
F		0.747680572		1.246563626		-3.234557915
