12
-186.56215295
Al		-0.36840627		1.032292532		-1.822252084
Al		-0.448538313		1.074165283		1.281272501
Al		-3.025609887		0.45727733		-1.861262565
F		-3.530013627		0.31520968		-3.594465593
F		-1.37484295		-0.561424372		-1.842125566
F		-1.942793121		2.066531389		-1.892247281
F		-2.033387601		0.715913695		0.456128581
F		0.598154196		1.270386461		-0.291121819
F		-0.301749277		2.739558228		1.990976315
F		0.367050452		-0.355044363		2.049995434
F		-4.274091911		0.211831122		-0.583303761
F		0.747741295		1.246575619		-3.234617176
