12
-186.56215295
Al		-0.369136442		1.032125894		-1.822715242
Al		-0.448648535		1.074140215		1.281207151
Al		-3.026557851		0.457064672		-1.861670791
F		-3.529731389		0.315287404		-3.593588565
F		-1.374450082		-0.56130555		-1.842099204
F		-1.942386459		2.066586389		-1.892219701
F		-2.033242505		0.715946335		0.456195793
F		0.598443826		1.270460655		-0.290513593
F		-0.301737993		2.739630332		1.990997739
F		0.367090326		-0.355104545		2.05001938
F		-4.273649935		0.211918688		-0.583720769
F		0.747862741		1.246599605		-3.234735698
