12
-186.56215295
Al		-0.37205713		1.031459342		-1.824567874
Al		-0.449089423		1.074039943		1.280945751
Al		-3.030349707		0.45621404		-1.863303695
F		-3.528602437		0.3155983		-3.590080453
F		-1.37287861		-0.560830262		-1.841993756
F		-1.940759811		2.066806389		-1.892109381
F		-2.032662121		0.716076895		0.456464641
F		0.599602346		1.270757431		-0.288080689
F		-0.301692857		2.739918748		1.991083435
F		0.367249822		-0.355345273		2.050115164
F		-4.271882031		0.212268952		-0.585388801
F		0.748348525		1.246695549		-3.235209786
