12
-186.56215295
Al		-0.372787302		1.031292704		-1.825031032
Al		-0.449199645		1.074014875		1.280880401
Al		-3.031297671		0.456001382		-1.863711921
F		-3.528320199		0.315676024		-3.589203425
F		-1.372485742		-0.56071144		-1.841967394
F		-1.940353149		2.066861389		-1.892081801
F		-2.032517025		0.716109535		0.456531853
F		0.599891976		1.270831625		-0.287472463
F		-0.301681573		2.739990852		1.991104859
F		0.367289696		-0.355405455		2.05013911
F		-4.271440055		0.212356518		-0.585805809
F		0.748469971		1.246719535		-3.235328308
