12
-186.56215295
Al		-0.374612732		1.030876109		-1.826188927
Al		-0.4494752		1.073952205		1.280717026
Al		-3.033667581		0.455469737		-1.864732486
F		-3.527614604		0.315870334		-3.587010855
F		-1.371503572		-0.560414385		-1.841901489
F		-1.939336494		2.066998889		-1.892012851
F		-2.032154285		0.716191135		0.456699883
F		0.600616051		1.27101711		-0.285951898
F		-0.301653363		2.740171112		1.991158419
F		0.367389381		-0.35555591		2.050198975
F		-4.270335115		0.212575433		-0.586848329
F		0.748773586		1.2467795		-3.235624613
