12
-186.56215295
Al		-0.375342904		1.030709471		-1.826652085
Al		-0.449585422		1.073927137		1.280651676
Al		-3.034615545		0.455257079		-1.865140712
F		-3.527332366		0.315948058		-3.586133827
F		-1.371110704		-0.560295563		-1.841875127
F		-1.938929832		2.067053889		-1.891985271
F		-2.032009189		0.716223775		0.456767095
F		0.600905681		1.271091304		-0.285343672
F		-0.301642079		2.740243216		1.991179843
F		0.367429255		-0.355616092		2.050222921
F		-4.269893139		0.212662999		-0.587265337
F		0.748895032		1.246803486		-3.235743135
