12
-186.56215295
Al		-0.37570799		1.030626152		-1.826883664
Al		-0.449640533		1.073914603		1.280619001
Al		-3.035089527		0.45515075		-1.865344825
F		-3.527191247		0.31598692		-3.585695313
F		-1.37091427		-0.560236152		-1.841861946
F		-1.938726501		2.067081389		-1.891971481
F		-2.031936641		0.716240095		0.456800701
F		0.601050496		1.271128401		-0.285039559
F		-0.301636437		2.740279268		1.991190555
F		0.367449192		-0.355646183		2.050234894
F		-4.269672151		0.212706782		-0.587473841
F		0.748955755		1.246815479		-3.235802396
