12
-186.56215295
Al		-0.376803248		1.030376195		-1.827578401
Al		-0.449805866		1.073877001		1.280520976
Al		-3.036511473		0.454831763		-1.865957164
F		-3.52676789		0.316103506		-3.584379771
F		-1.370324968		-0.560057919		-1.841822403
F		-1.938116508		2.067163889		-1.891930111
F		-2.031718997		0.716289055		0.456901519
F		0.601484941		1.271239692		-0.28412722
F		-0.301619511		2.740387424		1.991222691
F		0.367509003		-0.355736456		2.050270813
F		-4.269009187		0.212838131		-0.588099353
F		0.749137924		1.246851458		-3.235980179
