12
-186.56215295
Al		-0.377168334		1.030292876		-1.82780998
Al		-0.449860977		1.073864467		1.280488301
Al		-3.036985455		0.454725434		-1.866161277
F		-3.526626771		0.316142368		-3.583941257
F		-1.370128534		-0.559998508		-1.841809222
F		-1.937913177		2.067191389		-1.891916321
F		-2.031646449		0.716305375		0.456935125
F		0.601629756		1.271276789		-0.283823107
F		-0.301613869		2.740423476		1.991233403
F		0.36752894		-0.355766547		2.050282786
F		-4.268788199		0.212881914		-0.588307857
F		0.749198647		1.246863451		-3.23603944
