12
-186.56215295
Al		-0.365485582		1.032959084		-1.820399452
Al		-0.448097425		1.074265555		1.281533901
Al		-3.021818031		0.458127962		-1.859629661
F		-3.531142579		0.314898784		-3.597973705
F		-1.376414422		-0.56189966		-1.842231014
F		-1.944419769		2.066311389		-1.892357601
F		-2.033967985		0.715783135		0.455859733
F		0.596995676		1.270089685		-0.293554723
F		-0.301794413		2.739269812		1.990890619
F		0.366890956		-0.354803635		2.04989965
F		-4.275859815		0.211480858		-0.581635729
F		0.747255511		1.246479675		-3.234143088
