12
-186.56215295
Al		-0.37935885		1.029792962		-1.829199454
Al		-0.450191643		1.073789263		1.280292251
Al		-3.039829347		0.45408746		-1.867385955
F		-3.525780057		0.31637554		-3.581310173
F		-1.36894993		-0.559642042		-1.841730136
F		-1.936693191		2.067356389		-1.891833581
F		-2.031211161		0.716403295		0.457136761
F		0.602498646		1.271499371		-0.281998429
F		-0.301580017		2.740639788		1.991297675
F		0.367648562		-0.355947093		2.050354624
F		-4.267462271		0.213144612		-0.589558881
F		0.749562985		1.246935409		-3.236395006
