12
-186.56215295
Al		-0.382279538		1.02912641		-1.831052086
Al		-0.450632531		1.073688991		1.280030851
Al		-3.043621203		0.453236828		-1.869018859
F		-3.524651105		0.316686436		-3.577802061
F		-1.367378458		-0.559166754		-1.841624688
F		-1.935066543		2.067576389		-1.891723261
F		-2.030630777		0.716533855		0.457405609
F		0.603657166		1.271796147		-0.279565525
F		-0.301534881		2.740928204		1.991383371
F		0.367808058		-0.356187821		2.050450408
F		-4.265694367		0.213494876		-0.591226913
F		0.750048769		1.247031353		-3.236869094
