12
-186.56215295
Al		-0.383739882		1.028793134		-1.831978402
Al		-0.450852975		1.073638855		1.279900151
Al		-3.045517131		0.452811512		-1.869835311
F		-3.524086629		0.316841884		-3.576048005
F		-1.366592722		-0.55892911		-1.841571964
F		-1.934253219		2.067686389		-1.891668101
F		-2.030340585		0.716599135		0.457540033
F		0.604236426		1.271944535		-0.278349073
F		-0.301512313		2.741072412		1.991426219
F		0.367887806		-0.356308185		2.0504983
F		-4.264810415		0.213670008		-0.592060929
F		0.750291661		1.247079325		-3.237106138
