12
-186.56215295
Al		-0.38483514		1.028543177		-1.832673139
Al		-0.451018308		1.073601253		1.279802126
Al		-3.046939077		0.452492525		-1.87044765
F		-3.523663272		0.31695847		-3.574732463
F		-1.36600342		-0.558750877		-1.841532421
F		-1.933643226		2.067768889		-1.891626731
F		-2.030122941		0.716648095		0.457640851
F		0.604670871		1.272055826		-0.277436734
F		-0.301495387		2.741180568		1.991458355
F		0.367947617		-0.356398458		2.050534219
F		-4.264147451		0.213801357		-0.592686441
F		0.75047383		1.247115304		-3.237283921
