12
-186.56215295
Al		-0.385565312		1.028376539		-1.833136297
Al		-0.45112853		1.073576185		1.279736776
Al		-3.047887041		0.452279867		-1.870855876
F		-3.523381034		0.317036194		-3.573855435
F		-1.365610552		-0.558632055		-1.841506059
F		-1.933236564		2.067823889		-1.891599151
F		-2.029977845		0.716680735		0.457708063
F		0.604960501		1.27213002		-0.276828508
F		-0.301484103		2.741252672		1.991479779
F		0.367987491		-0.35645864		2.050558165
F		-4.263705475		0.213888923		-0.593103449
F		0.750595276		1.24713929		-3.237402443
