12
-186.56215295
Al		-0.366215754		1.032792446		-1.82086261
Al		-0.448207647		1.074240487		1.281468551
Al		-3.022765995		0.457915304		-1.860037887
F		-3.530860341		0.314976508		-3.597096677
F		-1.376021554		-0.561780838		-1.842204652
F		-1.944013107		2.066366389		-1.892330021
F		-2.033822889		0.715815775		0.455926945
F		0.597285306		1.270163879		-0.292946497
F		-0.301783129		2.739341916		1.990912043
F		0.36693083		-0.354863817		2.049923596
F		-4.275417839		0.211568424		-0.582052737
F		0.747376957		1.246503661		-3.23426161
