12
-186.56215295
Al		-0.386295484		1.028209901		-1.833599455
Al		-0.451238752		1.073551117		1.279671426
Al		-3.048835005		0.452067209		-1.871264102
F		-3.523098796		0.317113918		-3.572978407
F		-1.365217684		-0.558513233		-1.841479697
F		-1.932829902		2.067878889		-1.891571571
F		-2.029832749		0.716713375		0.457775275
F		0.605250131		1.272204214		-0.276220282
F		-0.301472819		2.741324776		1.991501203
F		0.368027365		-0.356518822		2.050582111
F		-4.263263499		0.213976489		-0.593520457
F		0.750716722		1.247163276		-3.237520965
