12
-186.56215295
Al		-0.387390742		1.027959944		-1.834294192
Al		-0.451404085		1.073513515		1.279573401
Al		-3.050256951		0.451748222		-1.871876441
F		-3.522675439		0.317230504		-3.571662865
F		-1.364628382		-0.558335		-1.841440154
F		-1.932219909		2.067961389		-1.891530201
F		-2.029615105		0.716762335		0.457876093
F		0.605684576		1.272315505		-0.275307943
F		-0.301455893		2.741432932		1.991533339
F		0.368087176		-0.356609095		2.05061803
F		-4.262600535		0.214107838		-0.594145969
F		0.750898891		1.247199255		-3.237698748
