12
-186.56215295
Al		-0.387755828		1.027876625		-1.834525771
Al		-0.451459196		1.073500981		1.279540726
Al		-3.050730933		0.451641893		-1.872080554
F		-3.52253432		0.317269366		-3.571224351
F		-1.364431948		-0.558275589		-1.841426973
F		-1.932016578		2.067988889		-1.891516411
F		-2.029542557		0.716778655		0.457909699
F		0.605829391		1.272352602		-0.27500383
F		-0.301450251		2.741468984		1.991544051
F		0.368107113		-0.356639186		2.050630003
F		-4.262379547		0.214151621		-0.594354473
F		0.750959614		1.247211248		-3.237758009
