12
-186.56215295
Al		-0.388120914		1.027793306		-1.83475735
Al		-0.451514307		1.073488447		1.279508051
Al		-3.051204915		0.451535564		-1.872284667
F		-3.522393201		0.317308228		-3.570785837
F		-1.364235514		-0.558216178		-1.841413792
F		-1.931813247		2.068016389		-1.891502621
F		-2.029470009		0.716794975		0.457943305
F		0.605974206		1.272389699		-0.274699717
F		-0.301444609		2.741505036		1.991554763
F		0.36812705		-0.356669277		2.050641976
F		-4.262158559		0.214195404		-0.594562977
F		0.751020337		1.247223241		-3.23781727
