12
-186.56215295
Al		-0.388486		1.027709987		-1.834988929
Al		-0.451569418		1.073475913		1.279475376
Al		-3.051678897		0.451429235		-1.87248878
F		-3.522252082		0.31734709		-3.570347323
F		-1.36403908		-0.558156767		-1.841400611
F		-1.931609916		2.068043889		-1.891488831
F		-2.029397461		0.716811295		0.457976911
F		0.606119021		1.272426796		-0.274395604
F		-0.301438967		2.741541088		1.991565475
F		0.368146987		-0.356699368		2.050653949
F		-4.261937571		0.214239187		-0.594771481
F		0.75108106		1.247235234		-3.237876531
