12
-186.56215295
Al		-0.39031143		1.027293392		-1.836146824
Al		-0.451844973		1.073413243		1.279312001
Al		-3.054048807		0.45089759		-1.873509345
F		-3.521546487		0.3175414		-3.568154753
F		-1.36305691		-0.557859712		-1.841334706
F		-1.930593261		2.068181389		-1.891419881
F		-2.029034721		0.716892895		0.458144941
F		0.606843096		1.272612281		-0.272875039
F		-0.301410757		2.741721348		1.991619035
F		0.368246672		-0.356849823		2.050713814
F		-4.260832631		0.214458102		-0.595814001
F		0.751384675		1.247295199		-3.238172836
