12
-186.56215295
Al		-0.390676516		1.027210073		-1.836378403
Al		-0.451900084		1.073400709		1.279279326
Al		-3.054522789		0.450791261		-1.873713458
F		-3.521405368		0.317580262		-3.567716239
F		-1.362860476		-0.557800301		-1.841321525
F		-1.93038993		2.068208889		-1.891406091
F		-2.028962173		0.716909215		0.458178547
F		0.606987911		1.272649378		-0.272570926
F		-0.301405115		2.7417574		1.991629747
F		0.368266609		-0.356879914		2.050725787
F		-4.260611643		0.214501885		-0.596022505
F		0.751445398		1.247307192		-3.238232097
