12
-186.56215295
Al		-0.391406688		1.027043435		-1.836841561
Al		-0.452010306		1.073375641		1.279213976
Al		-3.055470753		0.450578603		-1.874121684
F		-3.52112313		0.317657986		-3.566839211
F		-1.362467608		-0.557681479		-1.841295163
F		-1.929983268		2.068263889		-1.891378511
F		-2.028817077		0.716941855		0.458245759
F		0.607277541		1.272723572		-0.2719627
F		-0.301393831		2.741829504		1.991651171
F		0.368306483		-0.356940096		2.050749733
F		-4.260169667		0.214589451		-0.596439513
F		0.751566844		1.247331178		-3.238350619
