12
-186.56215295
Al		-0.366945926		1.032625808		-1.821325768
Al		-0.448317869		1.074215419		1.281403201
Al		-3.023713959		0.457702646		-1.860446113
F		-3.530578103		0.315054232		-3.596219649
F		-1.375628686		-0.561662016		-1.84217829
F		-1.943606445		2.066421389		-1.892302441
F		-2.033677793		0.715848415		0.455994157
F		0.597574936		1.270238073		-0.292338271
F		-0.301771845		2.73941402		1.990933467
F		0.366970704		-0.354923999		2.049947542
F		-4.274975863		0.21165599		-0.582469745
F		0.747498403		1.246527647		-3.234380132
