12
-186.56215295
Al		-0.393597204		1.026543521		-1.838231035
Al		-0.452340972		1.073300437		1.279017926
Al		-3.058314645		0.449940629		-1.875346362
F		-3.520276416		0.317891158		-3.564208127
F		-1.361289004		-0.557325013		-1.841216077
F		-1.928763282		2.068428889		-1.891295771
F		-2.028381789		0.717039775		0.458447395
F		0.608146431		1.272946154		-0.270138022
F		-0.301359979		2.742045816		1.991715443
F		0.368426105		-0.357120642		2.050821571
F		-4.258843739		0.214852149		-0.597690537
F		0.751931182		1.247403136		-3.238706185
