12
-186.56215295
Al		-0.39396229		1.026460202		-1.838462614
Al		-0.452396083		1.073287903		1.278985251
Al		-3.058788627		0.4498343		-1.875550475
F		-3.520135297		0.31793002		-3.563769613
F		-1.36109257		-0.557265602		-1.841202896
F		-1.928559951		2.068456389		-1.891281981
F		-2.028309241		0.717056095		0.458481001
F		0.608291246		1.272983251		-0.269833909
F		-0.301354337		2.742081868		1.991726155
F		0.368446042		-0.357150733		2.050833544
F		-4.258622751		0.214895932		-0.597899041
F		0.751991905		1.247415129		-3.238765446
