12
-186.56215295
Al		-0.394327376		1.026376883		-1.838694193
Al		-0.452451194		1.073275369		1.278952576
Al		-3.059262609		0.449727971		-1.875754588
F		-3.519994178		0.317968882		-3.563331099
F		-1.360896136		-0.557206191		-1.841189715
F		-1.92835662		2.068483889		-1.891268191
F		-2.028236693		0.717072415		0.458514607
F		0.608436061		1.273020348		-0.269529796
F		-0.301348695		2.74211792		1.991736867
F		0.368465979		-0.357180824		2.050845517
F		-4.258401763		0.214939715		-0.598107545
F		0.752052628		1.247427122		-3.238824707
