12
-186.56215295
Al		-0.395422634		1.026126926		-1.83938893
Al		-0.452616527		1.073237767		1.278854551
Al		-3.060684555		0.449408984		-1.876366927
F		-3.519570821		0.318085468		-3.562015557
F		-1.360306834		-0.557027958		-1.841150172
F		-1.927746627		2.068566389		-1.891226821
F		-2.028019049		0.717121375		0.458615425
F		0.608870506		1.273131639		-0.268617457
F		-0.301331769		2.742226076		1.991769003
F		0.36852579		-0.357271097		2.050881436
F		-4.257738799		0.215071064		-0.598733057
F		0.752234797		1.247463101		-3.23900249
