12
-186.56215295
Al		-0.39578772		1.026043607		-1.839620509
Al		-0.452671638		1.073225233		1.278821876
Al		-3.061158537		0.449302655		-1.87657104
F		-3.519429702		0.31812433		-3.561577043
F		-1.3601104		-0.556968547		-1.841136991
F		-1.927543296		2.068593889		-1.891213031
F		-2.027946501		0.717137695		0.458649031
F		0.609015321		1.273168736		-0.268313344
F		-0.301326127		2.742262128		1.991779715
F		0.368545727		-0.357301188		2.050893409
F		-4.257517811		0.215114847		-0.598941561
F		0.75229552		1.247475094		-3.239061751
