12
-186.56215295
Al		-0.396517892		1.025876969		-1.840083667
Al		-0.45278186		1.073200165		1.278756526
Al		-3.062106501		0.449089997		-1.876979266
F		-3.519147464		0.318202054		-3.560700015
F		-1.359717532		-0.556849725		-1.841110629
F		-1.927136634		2.068648889		-1.891185451
F		-2.027801405		0.717170335		0.458716243
F		0.609304951		1.27324293		-0.267705118
F		-0.301314843		2.742334232		1.991801139
F		0.368585601		-0.35736137		2.050917355
F		-4.257075835		0.215202413		-0.599358569
F		0.752416966		1.24749908		-3.239180273
