12
-186.56215295
Al		-0.396882978		1.02579365		-1.840315246
Al		-0.452836971		1.073187631		1.278723851
Al		-3.062580483		0.448983668		-1.877183379
F		-3.519006345		0.318240916		-3.560261501
F		-1.359521098		-0.556790314		-1.841097448
F		-1.926933303		2.068676389		-1.891171661
F		-2.027728857		0.717186655		0.458749849
F		0.609449766		1.273280027		-0.267401005
F		-0.301309201		2.742370284		1.991811851
F		0.368605538		-0.357391461		2.050929328
F		-4.256854847		0.215246196		-0.599567073
F		0.752477689		1.247511073		-3.239239534
