12
-186.56215295
Al		-0.397978236		1.025543693		-1.841009983
Al		-0.453002304		1.073150029		1.278625826
Al		-3.064002429		0.448664681		-1.877795718
F		-3.518582988		0.318357502		-3.558945959
F		-1.358931796		-0.556612081		-1.841057905
F		-1.92632331		2.068758889		-1.891130291
F		-2.027511213		0.717235615		0.458850667
F		0.609884211		1.273391318		-0.266488666
F		-0.301292275		2.74247844		1.991843987
F		0.368665349		-0.357481734		2.050965247
F		-4.256191883		0.215377545		-0.600192585
F		0.752659858		1.247547052		-3.239417317
