12
Properties=species:S:1:pos:R:3:forces:R:3 energy=-185.26096990 pbc="F F F"
Al    -0.355346038    0.8915132600000001    -1.601878536    0.511151    -0.995322    -0.038697
Al    -0.794705014    1.086469053    1.4375616359999999    -0.069105    0.132685    0.03831
Al    -3.0464718189999997    0.866142489    -1.698400242    0.428811    3.865717    0.987686
F    -3.2249661609999998    0.013385908000000002    -3.449242708    -0.092408    -2.257275    -1.891869
F    -1.6209536569999998    -0.465014201    -2.1449924449999997    -0.648428    -0.211302    -0.316323
F    -1.729844287    2.336901303    -2.165798383    0.480113    0.745391    0.241608
F    -2.045533325    0.500266939    0.111147424    0.077307    -0.30591    0.003487
F    0.463364827    1.1948039430000001    -0.010776010999999974    0.028324    0.317599    0.156975
F    0.014265524999999946    2.7762247970000002    1.933659947    0.066707    -0.007377    0.008434
F    0.574074615    -0.22243475799999998    1.8572200450000003    -0.083947    -0.053104    -0.019752
F    -4.277137792    -0.06396833    -0.546764665    -0.810365    -1.516743    1.058848
F    0.5245984269999999    1.245247437    -3.168147629    0.111839    0.285643    -0.228705
