      12
SCF Done            -186.33399007
Al           -0.078492457         1.657960396         2.155946121
Al            2.541859496         2.642172225         1.786615975
Al            1.363292258         2.643234181        -0.624939653
F             0.977233152         3.182124919         2.761181632
F            -1.578281947         2.695843143         2.418232495
F            -0.542763860        -0.152570018         2.329843460
F             1.855142969         0.898612185         2.095563034
F             2.917726542         1.766113272        -0.018647454
F             1.046940914         2.917590752        -2.391001404
F             1.842369068         4.041928587         0.571182465
F             4.127248566         3.200565411         2.437872968
F            -0.029631800         1.865747168         0.278663105
