12
Properties=species:S:1:pos:R:3:forces:R:3 energy=-186.28228123 pbc="F F F"
Al    -1.960427261    2.44953142    -1.114950291    0.154059    0.101866    0.075791
Al    -0.635389355    -0.121081794    -2.042235374    0.778848    0.138575    -0.265556
Al    -2.673906976    -0.447724918    -0.543879837    -0.914828    -0.145805    0.332702
F    -1.128163541    3.5597136359999997    0.10543134300000001    0.148345    0.185474    0.228828
F    -3.043090247    3.126025993    -2.428127592    -0.31342    0.152923    -0.352766
F    -1.60321048    -1.7675080269999999    -1.626223961    -0.002149    -0.217374    -0.057379
F    -2.979151962    1.357949083    -0.00084543799999999    -0.152997    -0.08819    0.186927
F    -3.848880763    -1.3868716319999999    0.393058253    -0.18866    -0.132247    0.198908
F    0.7370063979999999    -0.6251533410000001    -3.203065504    0.262859    -0.069792    -0.266837
F    -0.382387925    1.789272914    -2.037155031    0.183745    -0.026408    -0.095579
F    -2.539383157    0.41215215099999997    -2.359365228    -0.335353    0.056751    -0.231945
F    -0.7078643680000001    0.026391238999999997    -0.105354408    0.379551    0.044228    0.246905
