      12
SCF Done            -184.21970998
Al            0.325112393        -0.444050758         1.895002939
Al            2.273050965        -1.753823072        -0.468642297
Al           -0.834048981        -1.793726558        -0.921290543
F             3.512650307        -0.457455193        -1.132174780
F            -1.865053254        -0.526519488        -1.915608197
F             2.753794195        -3.631458494        -0.492561443
F            -1.240617166        -3.682757202        -1.074474320
F             1.984032397        -1.467302593         1.127858602
F             0.830030164        -1.514256082        -1.476546465
F             0.128330152        -1.132632363         3.306471889
F             0.402674771         0.999123499         1.235367936
F            -1.019761468        -1.505879383         0.690260414
