12
Properties=species:S:1:pos:R:3:forces:R:3 energy=-185.74316195 pbc="F F F"
Al    0.417586572    -2.311622211    -2.154412661    -0.090587    0.173992    0.355608
Al    1.9636495300000003    -0.5712748559999999    -0.693208624    -0.004312    -0.041358    -0.173097
Al    -0.39591520599999996    0.271991103    -1.669582283    0.103209    -0.083186    -0.149633
F    3.645356688    -0.08577281599999999    -0.122311223    0.010828    0.000396    0.086991
F    -0.405818974    -4.208016293    -1.788791836    0.021469    -0.179397    -0.204747
F    2.225750838    -1.745597076    -2.375741389    0.011421    0.02308    0.015647
F    1.4438700949999999    0.579938739    -2.1347596199999996    0.001303    -0.003814    -0.004281
F    -1.376272822    1.730318131    -2.245209511    -0.073369    0.034301    0.062882
F    -1.038682886    -1.341691852    -1.094067369    0.018007    0.009465    0.005346
F    -0.090920974    -0.9135979089999999    -3.3403917809999997    -0.001113    0.027766    0.01041
F    0.461221796    0.451953998    0.11319919799999999    0.009627    0.019822    -0.000894
F    1.048403934    -2.08636181    -0.225824173    -0.006483    0.018934    -0.004232
