      12
SCF Done            -185.74316195
Al            0.237592572        -2.337608211        -1.744924661
Al            2.052577530        -0.536438856        -0.846191624
Al           -0.315121206         0.314169103        -1.845519283
F             3.604791688        -0.185148816         0.012456777
F            -0.123697974        -4.021278293        -2.323048836
F             2.067192838        -1.824513076        -2.275225389
F             1.555927095         0.678055739        -2.306057620
F            -1.506044822         1.646549131        -2.126043511
F            -1.165976886        -1.253237852        -0.977457369
F            -0.113453974        -1.043010909        -3.193724781
F             0.519709796         0.386372998        -0.091745802
F             1.086698934        -2.063422810        -0.029060173
