12
Properties=species:S:1:pos:R:3:forces:R:3 energy=-186.46945320 pbc="F F F"
Al    -0.302743338    0.9455050599999999    -1.660270436    -0.115097    0.298622    0.133394
Al    -0.42532041400000004    1.110155453    1.300508536    -0.019423    -0.082539    -0.02542
Al    -2.928723619    0.496360589    -1.841197142    -0.003067    -0.098691    -0.011156
F    -3.4883958610000003    0.359515908    -3.569756908    0.009521    -0.025367    -0.001251
F    -1.352469357    -0.6355268009999999    -1.739153745    0.030249    -0.034052    -0.136763
F    -1.8233298869999999    2.080602703    -1.947015083    0.006291    0.028842    0.125832
F    -1.917430925    0.857563239    0.25092252400000004    -0.004159    -0.225858    0.020572
F    0.840987827    1.191958543    -0.23480871099999998    -0.018127    0.284056    -0.00482
F    -0.667054975    2.791000697    2.106468047    0.222479    0.120515    -0.112812
F    0.250005315    -0.468925558    1.9381550449999998    -0.184116    -0.113994    0.097358
F    -4.123696192    0.22696096999999998    -0.49617836499999995    -0.012684    0.027517    0.003365
F    0.31608352700000003    1.260345437    -3.489267429    0.088133    -0.179051    -0.088299
