12
Properties=species:S:1:pos:R:3:forces:R:3 energy=-183.18020694 pbc="F F F"
Al    -2.009025261    2.61874742    -0.9657472910000001    -1.164893    -2.951251    1.704786
Al    -0.36429435499999996    0.025140206    -2.1582063739999997    -2.495097    -4.953049    1.070172
Al    -2.098865976    -0.174061918    -0.621702837    2.033002    3.973742    -6.687867
F    -0.568268541    3.643299636    -0.295204657    -0.13534    0.13207    0.226985
F    -2.7707732469999997    3.242761993    -2.599953592    -0.098591    0.118673    -0.355354
F    -1.11631448    -1.601404027    -2.257853961    2.494945    2.883414    -1.398048
F    -2.620205962    1.523413083    0.490631562    -0.920546    1.330729    2.037737
F    -3.205968763    -1.083992632    0.46772225300000003    0.225849    0.701997    -0.014973
F    0.40137639799999997    -1.0034563410000001    -3.639267504    0.052253    -0.667026    -0.489362
F    -0.824081925    1.863882914    -2.185455031    -0.950777    -0.461699    0.469197
F    -2.4081471569999997    0.21995015099999998    -2.256245228    1.396833    -0.607972    2.972194
F    -0.23766236799999998    0.244798239    -0.379394408    -0.437636    0.500372    0.464534
