      12
SCF Done            -183.18020694
Al           -1.846029261         2.529779420        -1.070681291
Al           -0.331176355        -0.251545794        -2.433862374
Al           -2.184078976        -0.042997918        -0.667115837
F            -0.801177541         3.676821636        -0.113798657
F            -3.002452247         3.179293993        -2.331825592
F            -1.144997480        -1.627737027        -1.975563961
F            -2.701193962         1.645284083         0.405183562
F            -3.107505763        -1.027572632         0.506971253
F             0.749255398        -0.736997341        -3.840981504
F            -0.624727925         1.605228914        -2.192688031
F            -2.493676157         0.466481151        -2.261627228
F            -0.355725368         0.147997239        -0.343049408
