      12
SCF Done            -185.20425269
Al            0.408306372        -2.294554011        -2.114897561
Al            1.972133730        -0.556726656        -0.671852624
Al           -0.405391206         0.291402703        -1.649885383
F             3.696256888        -0.162080916        -0.185767323
F            -0.317800974        -4.070231993        -1.902387936
F             2.219440438        -1.767273976        -2.332407789
F             1.436939895         0.579769439        -2.118807220
F            -1.403407022         1.672434931        -2.348480311
F            -1.060751586        -1.350950852        -1.059773169
F            -0.128762974        -0.922620609        -3.306276081
F             0.447881696         0.436534498         0.134540298
F             1.035350334        -2.095214410        -0.190547173
