12
Properties=species:S:1:pos:R:3:forces:R:3 energy=-184.67774493 pbc="F F F"
Al    0.365565772    -2.224070411    -2.267956761    1.982643    3.516377    -1.866351
Al    2.13642633    -0.679534056    -0.731416624    -1.50774    -1.055496    -0.066757
Al    -0.384959206    0.317307503    -1.286479183    0.27334    -1.870882    0.831592
F    3.7100374879999998    0.213279284    -0.040614123    1.006952    0.218597    -0.097622
F    -0.563785974    -3.978474593    -1.9426007360000002    -1.739209    -3.235962    1.379504
F    2.2524242379999997    -1.8348511760000001    -2.375876989    0.024618    0.318958    0.158499
F    1.409666295    0.536310039    -2.00013902    -0.012014    0.087979    0.186244
F    -1.3528856219999998    1.235073331    -2.9360207110000003    -0.436111    0.876954    -0.822283
F    -1.085217186    -1.362288852    -0.984955569    0.249827    0.315813    0.027816
F    -0.19099397399999998    -0.784291209    -3.2578694809999997    0.084383    0.298939    0.196059
F    0.584635896    0.410777498    0.32352509799999996    0.013821    0.125544    0.121394
F    0.992072534    -2.0836862099999998    -0.275034173    0.059491    0.40318    -0.048092
