      12
SCF Done            -178.65534397
Al            0.148029572        -2.360196511        -1.550822161
Al            1.907201730        -0.573103156        -0.531130924
Al           -0.462680606         0.276954003        -1.525726383
F             3.634924288        -0.177549516        -0.052847823
F            -0.157024974        -4.029683793        -2.250823436
F             2.219142238        -1.848921976        -2.426636189
F             1.618678795         0.743980339        -2.401961420
F            -1.473429422         1.654774631        -2.196728711
F            -1.006346886        -1.242236652        -1.117959969
F            -0.110975974        -1.013127809        -3.404543481
F             0.556680596         0.345598898        -0.211961802
F             1.099298134        -1.997514710        -0.234259373
