12
Properties=species:S:1:pos:R:3:forces:R:3 energy=-177.86631175 pbc="F F F"
Al    -0.564454657    1.738190996    2.182940921    1.601535    2.286787    -0.68434
Al    2.0705248960000002    3.0477860249999997    1.763415975    -13.412618    10.120075    -13.079849
Al    1.104142258    2.9153429809999998    -0.5971604530000001    -0.364487    4.733717    6.089277
F    1.354866352    3.139910319    2.625414632    -0.331266    -0.409224    0.575242
F    -1.3047883470000001    2.512878943    2.1648988950000003    -2.765562    1.419062    0.129361
F    -0.43513926    0.05276178199999999    2.7205094599999997    0.934493    -0.568335    -0.133134
F    1.863566569    0.37084158500000003    1.950879034    0.978727    -3.778829    0.442805
F    3.247923542    1.656992472    -0.060119054    4.117451    -3.832373    -0.930771
F    1.115020514    2.998262952    -2.275664804    0.148773    -0.390527    1.372092
F    1.665554868    3.7922239870000003    0.559565265    3.848062    -9.649433    4.81814
F    4.488869966    3.1598800110000003    2.607836768    4.347017    -0.307356    2.221202
F    0.06967519999999999    1.828997168    0.151946105    0.897876    0.376435    -0.820026
