      12
SCF Done            -157.20902384
Al           -0.029738613         1.628801972         2.137448020
Al            2.429904896         3.034557025         1.568499975
Al            1.186831284         2.868462184        -0.592622454
F             1.019545378         3.052907336         2.825453663
F            -1.689544283         2.755713922         2.180465986
F            -0.482900271        -0.037526266         2.756129430
F             1.710046553         0.491169593         1.971865065
F             3.157320545         1.732921453        -0.017764016
F             1.103914609         3.005302933        -2.332023812
F             1.791750894         3.753080987         0.626361267
F             4.253498968         3.151853977         2.525276780
F             0.037942209         1.809306210         0.190573093
