12
Properties=species:S:1:pos:R:3:forces:R:3 energy=-186.25731671 pbc="F F F"
Al    -1.7249062609999999    2.57402822    -1.2419884909999999    -0.27619    -0.074289    -0.26547
Al    -0.509339355    -0.036814594    -2.354970974    0.04628    -0.0916    -0.031576
Al    -2.158432976    -0.319508518    -0.514166637    -0.009205    -0.102886    0.029309
F    -0.6880383409999999    3.974466436    -0.540843257    0.160326    0.460683    0.231528
F    -3.4797782469999996    2.937229793    -1.9336815920000001    -0.07613    -0.139632    -0.09527
F    -1.5184932800000002    -1.663852827    -1.874850361    -0.111968    -0.204745    -0.140004
F    -2.0856901619999997    1.455895083    0.272039162    0.016071    -0.008516    0.197051
F    -3.5785901630000003    -1.172345032    0.329933653    -0.0409    -0.022163    0.015893
F    0.8950247979999999    -0.587633541    -3.428374304    0.015078    -0.010774    -0.045533
F    -0.352450125    1.894178514    -2.407663831    0.19589    0.028073    -0.000263
F    -2.448449957    0.585791751    -2.207503628    -0.101493    0.236483    -0.048646
F    -0.188325368    -0.074039361    -0.428568208    0.182241    -0.070633    0.152981
