12
Properties=species:S:1:pos:R:3:forces:R:3 energy=-186.17128431 pbc="F F F"
Al    -1.795755061    2.4881678199999997    -1.226201291    -0.453745    -0.448736    -0.496716
Al    -0.672466355    0.048046606    -2.492991374    -0.057957    0.058765    0.26983
Al    -1.9994845760000002    -0.389317118    -0.338846637    0.246732    0.120759    -0.064509
F    -1.006616541    3.439849636    0.17890214299999999    0.331077    -0.152075    0.27352
F    -2.719680047    3.171938993    -2.7423997919999996    0.021659    -0.19206    -0.015874
F    -1.41184308    -1.673058227    -1.724179761    -0.044475    -0.01377    -0.043083
F    -2.297968762    1.4007312829999998    0.245082162    -0.011304    -0.014373    0.006331
F    -3.492076563    -1.049871032    0.589323253    -0.304373    0.295099    0.291278
F    0.796684198    -0.391369341    -3.566201504    0.197927    0.3973    -0.259899
F    -0.542780925    1.938623314    -2.587888031    0.007555    -0.010535    -0.014363
F    -2.594613957    0.455238151    -2.087078628    0.025474    0.073663    0.036876
F    -0.08648976800000002    0.141983439    -0.588333808    0.04143    -0.114038    0.016611
