12
Properties=species:S:1:pos:R:3:forces:R:3 energy=-184.18952399 pbc="F F F"
Al    -0.410803838    0.84839866    -1.653839936    0.706776    -1.247782    -0.054226
Al    -0.8066564140000001    1.1131554529999999    1.375028636    -0.09696    0.17814    0.065875
Al    -3.0689370190000003    0.967483689    -1.726111042    0.568983    5.761519    1.304634
F    -3.100396761    -0.115350092    -3.475559908    -0.097475    -3.348547    -2.706003
F    -1.7857696570000001    -0.425684601    -2.098929245    -0.967607    -0.401865    -0.404291
F    -1.7139164869999999    2.439878703    -2.065260183    0.769666    1.030815    0.298462
F    -2.0460583249999997    0.439204139    0.075069424    0.099651    -0.389047    0.00721
F    0.441653827    1.1645231429999998    -0.07510541099999998    0.069449    0.437369    0.25881
F    0.019952725000000004    2.750481997    1.979481147    0.082973    -0.008279    0.010454
F    0.535913615    -0.17968875799999998    1.8524622450000001    -0.114232    -0.071715    -0.027521
F    -4.141871192    -0.12146132999999999    -0.47262326499999996    -1.220682    -2.340859    1.618726
F    0.575459227    1.2623246369999999    -3.1337752290000003    0.199457    0.400252    -0.372128
