      12
SCF Done            -185.67372143
Al           -0.361130238         1.034783360        -1.774104436
Al           -0.366107614         1.089764153         1.165092436
Al           -3.051751519         0.451517389        -1.867052442
F            -3.544970361         0.311207908        -3.634808008
F            -1.292885757        -0.483753301        -1.838079445
F            -1.836116487         2.029823703        -1.886019583
F            -2.007302125         0.721937339         0.476377724
F             0.463162327         1.241962943        -0.251753811
F            -0.312342675         2.682938297         1.974111047
F             0.334162115        -0.308502458         2.031163045
F            -4.306148092         0.205573570        -0.548151065
F             0.682761327         1.233656837        -3.175650229
