12
Properties=species:S:1:pos:R:3:forces:R:3 energy=-186.13331371 pbc="F F F"
Al    0.365850993    -0.6295591580000001    1.733604439    -0.993871    0.085431    -0.636157
Al    2.535916565    -1.686147572    -0.272897397    -0.003768    0.750728    2.337538
Al    -0.580332981    -2.100152558    -1.1132052430000001    2.525888    -0.386994    -0.980549
F    3.3567414070000003    -0.46465909299999997    -1.46162218    0.297195    0.612256    -1.298983
F    -1.7580704539999998    -0.584717188    -1.3119657969999998    -1.150778    0.930557    0.410058
F    2.527664395    -3.537824494    -0.646039243    -0.290588    -1.023012    -0.750328
F    -1.578073566    -3.724607002    -1.09966522    -0.817636    -0.806991    0.497936
F    1.917214597    -1.771311693    1.529248502    0.091312    -0.421234    0.354854
F    1.080328764    -1.392039082    -1.400155465    0.023286    -0.100566    -0.049254
F    0.096257652    -1.185183363    3.4820515889999997    0.42749    -0.160541    0.388148
F    0.027094870999999965    1.110051799    1.018358936    -0.075963    0.09686    -0.07038
F    -0.847203268    -0.863281983    0.346145214    -0.032566    0.423506    -0.202882
