12
Properties=species:S:1:pos:R:3:forces:R:3 energy=-185.39640999 pbc="F F F"
Al    0.139323743    1.510022196    1.9049751209999999    1.451662    0.600657    -1.882959
Al    2.738189296    2.681603425    1.875552575    0.756453    0.769507    0.130899
Al    1.4216202580000001    2.7672483810000004    -0.726088253    -0.015194    1.182363    -1.002694
F    1.0306655519999999    3.2133465190000003    2.672129832    0.213208    -0.278431    0.766307
F    -1.523566347    2.2524949430000003    2.370229895    -1.198849    -0.553333    0.994716
F    -1.07167406    0.28917898200000003    2.9041988599999997    -0.965719    0.186193    0.560628
F    2.058625569    0.910255585    2.122762234    0.333331    0.13258    0.162805
F    2.9428167419999998    1.723653472    -0.24408485400000002    -0.417257    -1.208464    0.39702
F    1.038871714    2.9955117519999996    -2.493563604    -0.123907    -0.193161    -0.313868
F    1.459704068    3.7981143869999996    0.907929065    -0.376774    0.082626    0.355004
F    4.328930366    3.2075384110000003    2.609982768    0.150206    -0.103648    0.260925
F    -0.21140899999999999    2.007381368    -0.053074695    0.19284    -0.61689    -0.428784
