12
Properties=species:S:1:pos:R:3:forces:R:3 energy=-187.31648250 pbc="F F F"
Al    1.41455668    0.286773917    2.4804924730000004    1.183608    0.88477    0.275651
Al    1.1718043999999999    1.2945555999999998    -0.1058784    -0.030564    0.097232    -0.181753
Al    -0.360293162    0.51061925    -2.320898573    -0.993003    -1.075174    0.440105
F    -1.2944315720000001    -1.098735453    -2.270944606    0.508691    0.503165    -0.11969
F    2.147737653    -0.145491153    0.763602252    -0.005357    -0.132842    0.070234
F    -0.255134061    1.65910429    -3.7878679330000002    0.146872    0.40499    -0.591937
F    -0.63608361    1.614068553    -0.719058449    0.066304    0.121848    0.082037
F    2.278419357    2.731240112    -0.390857643    0.09854    0.08982    -0.010065
F    1.427765639    0.163062205    -1.691339654    0.163045    0.014509    0.03527
F    0.38213731700000003    1.6192552290000002    1.622793839    -0.092224    -0.020326    0.071203
F    2.653625769    0.954606276    3.581647837    -0.408299    -0.224246    -0.295994
F    0.252565475    -1.091178352    2.949838471    -0.637613    -0.663745    0.22494
