      12
SCF Done            -187.31648250
Al            1.481579680         0.215414917         2.446378473
Al            1.248382400         1.207152600        -0.147053400
Al           -0.486907162         0.649682250        -2.254657573
F            -1.759314572        -0.572574453        -2.023889606
F             2.147080653        -0.265743153         0.732332252
F            -0.214825061         1.605897290        -3.811014933
F            -0.451198610         1.851418553        -0.763337449
F             2.503189357         2.474348112        -0.511098643
F             1.192895639        -0.020405795        -1.622014654
F             0.502984317         1.606079229         1.591009839
F             2.758798769         0.841326276         3.526083837
F             0.256749475        -1.090941352         2.950526471
