      12
SCF Done            -168.15125228
Al            1.484598462         0.209857716         2.444232237
Al            1.244113600         1.212208600        -0.144393400
Al           -0.485245185         0.649696164        -2.255428273
F            -1.748835804        -0.583229344        -2.030184877
F             2.154390992        -0.258478354         0.729905913
F            -0.219433016         1.613946054        -3.807797194
F            -0.459748226         1.845620881        -0.760139095
F             2.490461353         2.489424109        -0.503166644
F             1.199636623        -0.010804872        -1.623863577
F             0.495004471         1.597945823         1.593630702
F             2.755965130         0.842095019         3.527503409
F             0.268430759        -1.106532859         2.943013586
