      12
SCF Done            -187.24475564
Al            0.349679232        -0.597930281         1.740024137
Al            2.350484854        -1.788431689        -0.519333908
Al           -0.892905094        -1.830089965        -0.991825718
F             3.476207861        -0.496312539        -1.113171866
F            -1.834592756        -0.564568372        -1.886893942
F             2.736730878        -3.562037556        -0.491032370
F            -1.226421584        -3.612947704        -1.068316008
F             1.896704000        -1.413959000         1.210791000
F             0.831810164        -1.508492882        -1.489273665
F             0.108904467        -1.170227816         3.443120873
F             0.406488402         1.136303672         1.197458439
F            -0.961102533        -1.450586935         0.794454569
