      12
SCF Done            -186.56215295
Al           -0.364025238         1.033292360        -1.819473136
Al           -0.448802745         1.074115286         1.281642477
Al           -3.019907074         0.458539250        -1.859637777
F            -3.531171612         0.314835874        -3.600714112
F            -1.377183602        -0.562142209        -1.842682996
F            -1.945217676         2.066196330        -1.892818298
F            -2.034937978         0.715566174         0.455209242
F             0.595959000         1.269851000        -0.294469000
F            -0.302958265         2.738877667         1.990980621
F             0.365662228        -0.354932327         2.049975675
F            -4.277109619         0.211200791        -0.582018632
F             0.747433190         1.246527054        -3.233561119
