12
Properties=species:S:1:pos:R:3:forces:R:3 energy=-187.29648806 pbc="F F F"
Al    1.4426891800000001    0.303484617    2.4792532730000003    1.334744    0.990808    0.326037
Al    1.1692732000000001    1.2950343    -0.11433170000000001    -0.028377    0.115297    -0.206605
Al    -0.39158536199999994    0.50002425    -2.307164673    -1.126125    -1.213125    0.48446
F    -1.295703372    -1.133525953    -2.252758106    0.556285    0.555653    -0.139111
F    2.149625953    -0.143192553    0.755391352    0.000512    -0.155096    0.075621
F    -0.29994196100000003    1.64672179    -3.783049133    0.160913    0.459099    -0.678731
F    -0.64823521    1.606463653    -0.705382249    0.068799    0.144266    0.093697
F    2.272522457    2.731601312    -0.41717454299999995    0.122794    0.114386    -0.01669
F    1.410975439    0.16236180500000003    -1.6992579540000001    0.192124    0.011055    0.037753
F    0.4011562169999999    1.632049329    1.623959439    -0.110299    -0.013783    0.079615
F    2.696222369    0.9671281759999999    3.561201637    -0.450196    -0.25076    -0.321192
F    0.276761575    -1.071535852    2.970067771    -0.721174    -0.7578    0.265146
