12
-185.77729729
Al		0.27546053		-2.328172272		-1.827187764
Al		2.034606772		-0.541036517		-0.807503551
Al		-0.335230089		0.309022243		-1.80207784
F		3.624863842		-0.18007926		-0.031716561
F		-0.166917536		-4.032488202		-2.229646672
F		2.101326474		-1.811520237		-2.287805089
F		1.529506276		0.656069031		-2.264215139
F		-1.483195283		1.65225526		-2.175460313
F		-1.142787155		-1.274715708		-0.995616138
F		-0.116902528		-1.015984262		-3.218921378
F		0.503948313		0.397419969		-0.041617813
F		1.075556548		-2.070222747		-0.064748411
