12
-185.77729729
Al		0.274844552		-2.329357221		-1.827609891
Al		2.03375755		-0.541839884		-0.807988894
Al		-0.335670045		0.308233285		-1.802372662
F		3.62258281		-0.180589065		-0.032828412
F		-0.167687594		-4.035469983		-2.230348996
F		2.104034016		-1.809062904		-2.28665758
F		1.529693305		0.654761232		-2.262133628
F		-1.482825023		1.651838812		-2.175337931
F		-1.144530203		-1.272590403		-0.994413477
F		-0.11732155		-1.01352503		-3.22058816
F		0.505751157		0.396519681		-0.043038112
F		1.077972301		-2.067838998		-0.062968544
