12
-185.77729729
Al		0.27477611		-2.329488882		-1.827656794
Al		2.033663192		-0.541929147		-0.808042821
Al		-0.335718929		0.308145623		-1.80240542
F		3.622329362		-0.18064571		-0.032951951
F		-0.167773156		-4.035801292		-2.230427032
F		2.104334854		-1.808789867		-2.286530079
F		1.529714086		0.654615921		-2.261902349
F		-1.482783883		1.65179254		-2.175324333
F		-1.144723875		-1.272354258		-0.994279848
F		-0.117368108		-1.013251782		-3.220773358
F		0.505951473		0.396419649		-0.043195923
F		1.078240718		-2.067574137		-0.062770781
