12
-185.77729729
Al		0.274365458		-2.330278848		-1.827938212
Al		2.033097044		-0.542464725		-0.808366383
Al		-0.336012233		0.307619651		-1.802601968
F		3.620808674		-0.18098558		-0.033693185
F		-0.168286528		-4.037789146		-2.230895248
F		2.106139882		-1.807151645		-2.285765073
F		1.529838772		0.653744055		-2.260514675
F		-1.482537043		1.651514908		-2.175242745
F		-1.145885907		-1.270937388		-0.993478074
F		-0.117647456		-1.011612294		-3.221884546
F		0.507153369		0.395819457		-0.044142789
F		1.07985122		-2.065984971		-0.061584203
