12
-185.77729729
Al		0.273817922		-2.331332136		-1.828313436
Al		2.03234218		-0.543178829		-0.808797799
Al		-0.336403305		0.306918355		-1.802864032
F		3.61878109		-0.18143874		-0.034681497
F		-0.168971024		-4.040439618		-2.231519536
F		2.108546586		-1.804967349		-2.284745065
F		1.53000502		0.652581567		-2.258664443
F		-1.482207923		1.651144732		-2.175133961
F		-1.147435283		-1.269048228		-0.992409042
F		-0.11801992		-1.00942631		-3.22336613
F		0.508755897		0.395019201		-0.045405277
F		1.081998556		-2.063866083		-0.060002099
