12
-185.77729729
Al		0.273544154		-2.33185878		-1.828501048
Al		2.031964748		-0.543535881		-0.809013507
Al		-0.336598841		0.306567707		-1.802995064
F		3.617767298		-0.18166532		-0.035175653
F		-0.169313272		-4.041764854		-2.23183168
F		2.109749938		-1.803875201		-2.284235061
F		1.530088144		0.652000323		-2.257739327
F		-1.482043363		1.650959644		-2.175079569
F		-1.148209971		-1.268103648		-0.991874526
F		-0.118206152		-1.008333318		-3.224106922
F		0.509557161		0.394619073		-0.046036521
F		1.083072224		-2.062806639		-0.059211047
