12
-185.77729729
Al		0.273475712		-2.331990441		-1.828547951
Al		2.03187039		-0.543625144		-0.809067434
Al		-0.336647725		0.306480045		-1.803027822
F		3.61751385		-0.181721965		-0.035299192
F		-0.169398834		-4.042096163		-2.231909716
F		2.110050776		-1.803602164		-2.28410756
F		1.530108925		0.651855012		-2.257508048
F		-1.482002223		1.650913372		-2.175065971
F		-1.148403643		-1.267867503		-0.991740897
F		-0.11825271		-1.00806007		-3.22429212
F		0.509757477		0.394519041		-0.046194332
F		1.083340641		-2.062541778		-0.059013284
