12
-185.77729729
Al		0.27306506		-2.332780407		-1.828829369
Al		2.031304242		-0.544160722		-0.809390996
Al		-0.336941029		0.305954073		-1.80322437
F		3.615993162		-0.182061835		-0.036040426
F		-0.169912206		-4.044084017		-2.232377932
F		2.111855804		-1.801963942		-2.283342554
F		1.530233611		0.650983146		-2.256120374
F		-1.481755383		1.65063574		-2.174984383
F		-1.149565675		-1.266450633		-0.990939123
F		-0.118532058		-1.006420582		-3.225403308
F		0.510959373		0.393918849		-0.047141198
F		1.084951143		-2.060952612		-0.057826706
