12
-185.77729729
Al		0.272585966		-2.333702034		-1.82915769
Al		2.030643736		-0.544785563		-0.809768485
Al		-0.337283217		0.305340439		-1.803453676
F		3.614219026		-0.18245835		-0.036905199
F		-0.17051114		-4.04640318		-2.232924184
F		2.11396167		-1.800052683		-2.282450047
F		1.530379078		0.649965969		-2.254501421
F		-1.481467403		1.650311836		-2.174889197
F		-1.150921379		-1.264797618		-0.99000372
F		-0.118857964		-1.004507846		-3.226699694
F		0.512361585		0.393218625		-0.048245875
F		1.086830062		-2.059098585		-0.056442365
