12
-185.77729729
Al		0.272517524		-2.333833695		-1.829204593
Al		2.030549378		-0.544874826		-0.809822412
Al		-0.337332101		0.305252777		-1.803486434
F		3.613965578		-0.182514995		-0.037028738
F		-0.170596702		-4.046734489		-2.23300222
F		2.114262508		-1.799779646		-2.282322546
F		1.530399859		0.649820658		-2.254270142
F		-1.481426263		1.650265564		-2.174875599
F		-1.151115051		-1.264561473		-0.989870091
F		-0.118904522		-1.004234598		-3.226884892
F		0.512561901		0.393118593		-0.048403686
F		1.087098479		-2.058833724		-0.056244602
