12
-185.77729729
Al		0.272243756		-2.334360339		-1.829392205
Al		2.030171946		-0.545231878		-0.81003812
Al		-0.337527637		0.304902129		-1.803617466
F		3.612951786		-0.182741575		-0.037522894
F		-0.17093895		-4.048059725		-2.233314364
F		2.11546586		-1.798687498		-2.281812542
F		1.530482983		0.649239414		-2.253345026
F		-1.481261703		1.650080476		-2.174821207
F		-1.151889739		-1.263616893		-0.989335575
F		-0.119090754		-1.003141606		-3.227625684
F		0.513363165		0.392718465		-0.04903493
F		1.088172147		-2.05777428		-0.05545355
