12
-185.77729729
Al		0.271764662		-2.335281966		-1.829720526
Al		2.02951144		-0.545856719		-0.810415609
Al		-0.337869825		0.304288495		-1.803846772
F		3.61117765		-0.18313809		-0.038387667
F		-0.171537884		-4.050378888		-2.233860616
F		2.117571726		-1.796776239		-2.280920035
F		1.53062845		0.648222237		-2.251726073
F		-1.480973723		1.649756572		-2.174726021
F		-1.153245443		-1.261963878		-0.988400172
F		-0.11941666		-1.00122887		-3.22892207
F		0.514765377		0.392018241		-0.050139607
F		1.090051066		-2.055920253		-0.054069209
