12
-185.77729729
Al		0.271490894		-2.33580861		-1.829908138
Al		2.029134008		-0.546213771		-0.810631317
Al		-0.338065361		0.303937847		-1.803977804
F		3.610163858		-0.18336467		-0.038881823
F		-0.171880132		-4.051704124		-2.23417276
F		2.118775078		-1.795684091		-2.280410031
F		1.530711574		0.647640993		-2.250800957
F		-1.480809163		1.649571484		-2.174671629
F		-1.154020131		-1.261019298		-0.987865656
F		-0.119602892		-1.000135878		-3.229662862
F		0.515566641		0.391618113		-0.050770851
F		1.091124734		-2.054860809		-0.053278157
