12
-185.77729729
Al		0.27511832		-2.328830577		-1.827422279
Al		2.034134982		-0.541482832		-0.807773186
Al		-0.335474509		0.308583933		-1.80224163
F		3.623596602		-0.180362485		-0.032334256
F		-0.167345346		-4.034144747		-2.230036852
F		2.102830664		-1.810155052		-2.287167584
F		1.529610181		0.655342476		-2.263058744
F		-1.482989583		1.6520239		-2.175392323
F		-1.143755515		-1.273534983		-0.994947993
F		-0.117135318		-1.014618022		-3.219847368
F		0.504949893		0.396919809		-0.042406868
F		1.076898633		-2.068898442		-0.063759596
