12
-185.77729729
Al		0.27135401		-2.336071932		-1.830001944
Al		2.028945292		-0.546392297		-0.810739171
Al		-0.338163129		0.303762523		-1.80404332
F		3.609656962		-0.18347796		-0.039128901
F		-0.172051256		-4.052366742		-2.234328832
F		2.119376754		-1.795138017		-2.280155029
F		1.530753136		0.647350371		-2.250338399
F		-1.480726883		1.64947894		-2.174644433
F		-1.154407475		-1.260547008		-0.987598398
F		-0.119696008		-0.999589382		-3.230033258
F		0.515967273		0.391418049		-0.051086473
F		1.091661568		-2.054331087		-0.052882631
