12
-185.77729729
Al		0.270806474		-2.33712522		-1.830377168
Al		2.028190428		-0.547106401		-0.811170587
Al		-0.338554201		0.303061227		-1.804305384
F		3.607629378		-0.18393112		-0.040117213
F		-0.172735752		-4.055017214		-2.23495312
F		2.121783458		-1.792953721		-2.279135021
F		1.530919384		0.646187883		-2.248488167
F		-1.480397763		1.649108764		-2.174535649
F		-1.155956851		-1.258657848		-0.986529366
F		-0.120068472		-0.997403398		-3.231514842
F		0.517569801		0.390617793		-0.052348961
F		1.093808904		-2.052212199		-0.051300527
