12
-185.77729729
Al		0.27066959		-2.337388542		-1.830470974
Al		2.028001712		-0.547284927		-0.811278441
Al		-0.338651969		0.302885903		-1.8043709
F		3.607122482		-0.18404441		-0.040364291
F		-0.172906876		-4.055679832		-2.235109192
F		2.122385134		-1.792407647		-2.278880019
F		1.530960946		0.645897261		-2.248025609
F		-1.480315483		1.64901622		-2.174508453
F		-1.156344195		-1.258185558		-0.986262108
F		-0.120161588		-0.996856902		-3.231885238
F		0.517970433		0.390417729		-0.052664583
F		1.094345738		-2.051682477		-0.050905001
