12
-185.77729729
Al		0.270601148		-2.337520203		-1.830517877
Al		2.027907354		-0.54737419		-0.811332368
Al		-0.338700853		0.302798241		-1.804403658
F		3.606869034		-0.184101055		-0.04048783
F		-0.172992438		-4.056011141		-2.235187228
F		2.122685972		-1.79213461		-2.278752518
F		1.530981727		0.64575195		-2.24779433
F		-1.480274343		1.648969948		-2.174494855
F		-1.156537867		-1.257949413		-0.986128479
F		-0.120208146		-0.996583654		-3.232070436
F		0.518170749		0.390317697		-0.052822394
F		1.094614155		-2.051417616		-0.050707238
