12
-185.77729729
Al		0.270258938		-2.338178508		-1.830752392
Al		2.027435564		-0.547820505		-0.811602003
Al		-0.338945273		0.302359931		-1.804567448
F		3.605601794		-0.18438428		-0.041105525
F		-0.173420248		-4.057667686		-2.235577408
F		2.124190162		-1.790769425		-2.278115013
F		1.531085632		0.645025395		-2.246637935
F		-1.480068643		1.648738588		-2.174426865
F		-1.157506227		-1.256768688		-0.985460334
F		-0.120440936		-0.995217414		-3.232996426
F		0.519172329		0.389817537		-0.053611449
F		1.09595624		-2.050093311		-0.049718423
