12
-185.77729729
Al		0.270122054		-2.33844183		-1.830846198
Al		2.027246848		-0.547999031		-0.811709857
Al		-0.339043041		0.302184607		-1.804632964
F		3.605094898		-0.18449757		-0.041352603
F		-0.173591372		-4.058330304		-2.23573348
F		2.124791838		-1.790223351		-2.277860011
F		1.531127194		0.644734773		-2.246175377
F		-1.479986363		1.648646044		-2.174399669
F		-1.157893571		-1.256296398		-0.985193076
F		-0.120534052		-0.994670918		-3.233366822
F		0.519572961		0.389617473		-0.053927071
F		1.096493074		-2.049563589		-0.049322897
