12
-185.77729729
Al		0.269437634		-2.33975844		-1.831315228
Al		2.026303268		-0.548891661		-0.812249127
Al		-0.339531881		0.301307987		-1.804960544
F		3.602560418		-0.18506402		-0.042587993
F		-0.174446992		-4.061643394		-2.23651384
F		2.127800218		-1.787492981		-2.276585001
F		1.531335004		0.643281663		-2.243862587
F		-1.479574963		1.648183324		-2.174263689
F		-1.159830291		-1.253934948		-0.983856786
F		-0.120999632		-0.991938438		-3.235218802
F		0.521576121		0.388617153		-0.055505181
F		1.099177244		-2.046914979		-0.047345267
