12
-185.77729729
Al		0.274912994		-2.32922556		-1.827562988
Al		2.033851908		-0.541750621		-0.807934967
Al		-0.335621161		0.308320947		-1.802339904
F		3.622836258		-0.18053242		-0.032704873
F		-0.167602032		-4.035138674		-2.23027096
F		2.103733178		-1.809335941		-2.286785081
F		1.529672524		0.654906543		-2.262364907
F		-1.482866163		1.651885084		-2.175351529
F		-1.144336531		-1.272826548		-0.994547106
F		-0.117274992		-1.013798278		-3.220402962
F		0.505550841		0.396619713		-0.042880301
F		1.077703884		-2.068103859		-0.063166307
