12
-185.77729729
Al		0.26930075		-2.340021762		-1.831409034
Al		2.026114552		-0.549070187		-0.812356981
Al		-0.339629649		0.301132663		-1.80502606
F		3.602053522		-0.18517731		-0.042835071
F		-0.174618116		-4.062306012		-2.236669912
F		2.128401894		-1.786946907		-2.276329999
F		1.531376566		0.642991041		-2.243400029
F		-1.479492683		1.64809078		-2.174236493
F		-1.160217635		-1.253462658		-0.983589528
F		-0.121092748		-0.991391942		-3.235589198
F		0.521976753		0.388417089		-0.055820803
F		1.099714078		-2.046385257		-0.046949741
