12
-185.77729729
Al		0.269232308		-2.340153423		-1.831455937
Al		2.026020194		-0.54915945		-0.812410908
Al		-0.339678533		0.301045001		-1.805058818
F		3.601800074		-0.185233955		-0.04295861
F		-0.174703678		-4.062637321		-2.236747948
F		2.128702732		-1.78667387		-2.276202498
F		1.531397347		0.64284573		-2.24316875
F		-1.479451543		1.648044508		-2.174222895
F		-1.160411307		-1.253226513		-0.983455899
F		-0.121139306		-0.991118694		-3.235774396
F		0.522177069		0.388317057		-0.055978614
F		1.099982495		-2.046120396		-0.046751978
