12
-185.77729729
Al		0.269026982		-2.340548406		-1.831596646
Al		2.02573712		-0.549427239		-0.812572689
Al		-0.339825185		0.300782015		-1.805157092
F		3.60103973		-0.18540389		-0.043329227
F		-0.174960364		-4.063631248		-2.236982056
F		2.129605246		-1.785854759		-2.275819995
F		1.53145969		0.642409797		-2.242474913
F		-1.479328123		1.647905692		-2.174182101
F		-1.160992323		-1.252518078		-0.983055012
F		-0.12127898		-0.99029895		-3.23632999
F		0.522778017		0.388016961		-0.056452047
F		1.100787746		-2.045325813		-0.046158689
