12
-185.77729729
Al		0.26895854		-2.340680067		-1.831643549
Al		2.025642762		-0.549516502		-0.812626616
Al		-0.339874069		0.300694353		-1.80518985
F		3.600786282		-0.185460535		-0.043452766
F		-0.175045926		-4.063962557		-2.237060092
F		2.129906084		-1.785581722		-2.275692494
F		1.531480471		0.642264486		-2.242243634
F		-1.479286983		1.64785942		-2.174168503
F		-1.161185995		-1.252281933		-0.982921383
F		-0.121325538		-0.990025702		-3.236515188
F		0.522978333		0.387916929		-0.056609858
F		1.101056163		-2.045060952		-0.045960926
