12
-185.77729729
Al		0.268890098		-2.340811728		-1.831690452
Al		2.025548404		-0.549605765		-0.812680543
Al		-0.339922953		0.300606691		-1.805222608
F		3.600532834		-0.18551718		-0.043576305
F		-0.175131488		-4.064293866		-2.237138128
F		2.130206922		-1.785308685		-2.275564993
F		1.531501252		0.642119175		-2.242012355
F		-1.479245843		1.647813148		-2.174154905
F		-1.161379667		-1.252045788		-0.982787754
F		-0.121372096		-0.989752454		-3.236700386
F		0.523178649		0.387816897		-0.056767669
F		1.10132458		-2.044796091		-0.045763163
