12
-185.77729729
Al		0.275597414		-2.32790895		-1.827093958
Al		2.034795488		-0.540857991		-0.807395697
Al		-0.335132321		0.309197567		-1.802012324
F		3.625370738		-0.17996597		-0.031469483
F		-0.166746412		-4.031825584		-2.2294906
F		2.100724798		-1.812066311		-2.288060091
F		1.529464714		0.656359653		-2.264677697
F		-1.483277563		1.652347804		-2.175487509
F		-1.142399811		-1.275187998		-0.995883396
F		-0.116809412		-1.016530758		-3.218550982
F		0.503547681		0.397620033		-0.041302191
F		1.075019714		-2.070752469		-0.065143937
