12
-185.77729729
Al		0.276213392		-2.326724001		-1.826671831
Al		2.03564471		-0.540054624		-0.806910354
Al		-0.334692365		0.309986525		-1.801717502
F		3.62765177		-0.179456165		-0.030357632
F		-0.165976354		-4.028843803		-2.228788276
F		2.098017256		-1.814523644		-2.2892076
F		1.529277685		0.657667452		-2.266759208
F		-1.483647823		1.652764252		-2.175609891
F		-1.140656763		-1.277313303		-0.997086057
F		-0.11639039		-1.01898999		-3.2168842
F		0.501744837		0.398520321		-0.039881892
F		1.072603961		-2.073136218		-0.066923804
