12
-185.77729729
Al		0.276350276		-2.326460679		-1.826578025
Al		2.035833426		-0.539876098		-0.8068025
Al		-0.334594597		0.310161849		-1.801651986
F		3.628158666		-0.179342875		-0.030110554
F		-0.16580523		-4.028181185		-2.228632204
F		2.09741558		-1.815069718		-2.289462602
F		1.529236123		0.657958074		-2.267221766
F		-1.483730103		1.652856796		-2.175637087
F		-1.140269419		-1.277785593		-0.997353315
F		-0.116297274		-1.019536486		-3.216513804
F		0.501344205		0.398720385		-0.03956627
F		1.072067127		-2.07366594		-0.06731933
