12
-185.77729729
Al		0.276418718		-2.326329018		-1.826531122
Al		2.035927784		-0.539786835		-0.806748573
Al		-0.334545713		0.310249511		-1.801619228
F		3.628412114		-0.17928623		-0.029987015
F		-0.165719668		-4.027849876		-2.228554168
F		2.097114742		-1.815342755		-2.289590103
F		1.529215342		0.658103385		-2.267453045
F		-1.483771243		1.652903068		-2.175650685
F		-1.140075747		-1.278021738		-0.997486944
F		-0.116250716		-1.019809734		-3.216328606
F		0.501143889		0.398820417		-0.039408459
F		1.07179871		-2.073930801		-0.067517093
