12
-185.77729729
Al		0.27648716		-2.326197357		-1.826484219
Al		2.036022142		-0.539697572		-0.806694646
Al		-0.334496829		0.310337173		-1.80158647
F		3.628665562		-0.179229585		-0.029863476
F		-0.165634106		-4.027518567		-2.228476132
F		2.096813904		-1.815615792		-2.289717604
F		1.529194561		0.658248696		-2.267684324
F		-1.483812383		1.65294934		-2.175664283
F		-1.139882075		-1.278257883		-0.997620573
F		-0.116204158		-1.020082982		-3.216143408
F		0.500943573		0.398920449		-0.039250648
F		1.071530293		-2.074195662		-0.067714856
