12
-185.77729729
Al		0.276692486		-2.325802374		-1.82634351
Al		2.036305216		-0.539429783		-0.806532865
Al		-0.334350177		0.310600159		-1.801488196
F		3.629425906		-0.17905965		-0.029492859
F		-0.16537742		-4.02652464		-2.228242024
F		2.09591139		-1.816434903		-2.290100107
F		1.529132218		0.658684629		-2.268378161
F		-1.483935803		1.653088156		-2.175705077
F		-1.139301059		-1.278966318		-0.99802146
F		-0.116064484		-1.020902726		-3.215587814
F		0.500342625		0.399220545		-0.038777215
F		1.070725042		-2.074990245		-0.068308145
