12
-185.77729729
Al		0.277034696		-2.325144069		-1.826108995
Al		2.036777006		-0.538983468		-0.80626323
Al		-0.334105757		0.311038469		-1.801324406
F		3.630693146		-0.178776425		-0.028875164
F		-0.16494961		-4.024868095		-2.227851844
F		2.0944072		-1.817800088		-2.290737612
F		1.529028313		0.659411184		-2.269534556
F		-1.484141503		1.653319516		-2.175773067
F		-1.138332699		-1.280147043		-0.998689605
F		-0.115831694		-1.022268966		-3.214661824
F		0.499341045		0.399720705		-0.03798816
F		1.069382957		-2.07631455		-0.06929696
