12
-185.77729729
Al		0.27717158		-2.324880747		-1.826015189
Al		2.036965722		-0.538804942		-0.806155376
Al		-0.334007989		0.311213793		-1.80125889
F		3.631200042		-0.178663135		-0.028628086
F		-0.164778486		-4.024205477		-2.227695772
F		2.093805524		-1.818346162		-2.290992614
F		1.528986751		0.659701806		-2.269997114
F		-1.484223783		1.65341206		-2.175800263
F		-1.137945355		-1.280619333		-0.998956863
F		-0.115738578		-1.022815462		-3.214291428
F		0.498940413		0.399920769		-0.037672538
F		1.068846123		-2.076844272		-0.069692486
