12
-185.77729729
Al		0.277582232		-2.324090781		-1.825733771
Al		2.03753187		-0.538269364		-0.805831814
Al		-0.333714685		0.311739765		-1.801062342
F		3.63272073		-0.178323265		-0.027886852
F		-0.164265114		-4.022217623		-2.227227556
F		2.092000496		-1.819984384		-2.29175762
F		1.528862065		0.660573672		-2.271384788
F		-1.484470623		1.653689692		-2.175881851
F		-1.136783323		-1.282036203		-0.999758637
F		-0.11545923		-1.02445495		-3.21318024
F		0.497738517		0.400520961		-0.036725672
F		1.067235621		-2.078433438		-0.070879064
