12
-185.77729729
Al		0.277856		-2.323564137		-1.825546159
Al		2.037909302		-0.537912312		-0.805616106
Al		-0.333519149		0.312090413		-1.80093131
F		3.633734522		-0.178096685		-0.027392696
F		-0.163922866		-4.020892387		-2.226915412
F		2.090797144		-1.821076532		-2.292267624
F		1.528778941		0.661154916		-2.272309904
F		-1.484635183		1.65387478		-2.175936243
F		-1.136008635		-1.282980783		-1.000293153
F		-0.115272998		-1.025547942		-3.212439448
F		0.496937253		0.400921089		-0.036094428
F		1.066161953		-2.079492882		-0.071670116
