12
-185.77729729
Al		0.277924442		-2.323432476		-1.825499256
Al		2.03800366		-0.537823049		-0.805562179
Al		-0.333470265		0.312178075		-1.800898552
F		3.63398797		-0.17804004		-0.027269157
F		-0.163837304		-4.020561078		-2.226837376
F		2.090496306		-1.821349569		-2.292395125
F		1.52875816		0.661300227		-2.272541183
F		-1.484676323		1.653921052		-2.175949841
F		-1.135814963		-1.283216928		-1.000426782
F		-0.11522644		-1.02582119		-3.21225425
F		0.496736937		0.401021121		-0.035936617
F		1.065893536		-2.079757743		-0.071867879
