12
-185.77729729
Al		0.277992884		-2.323300815		-1.825452353
Al		2.038098018		-0.537733786		-0.805508252
Al		-0.333421381		0.312265737		-1.800865794
F		3.634241418		-0.177983395		-0.027145618
F		-0.163751742		-4.020229769		-2.22675934
F		2.090195468		-1.821622606		-2.292522626
F		1.528737379		0.661445538		-2.272772462
F		-1.484717463		1.653967324		-2.175963439
F		-1.135621291		-1.283453073		-1.000560411
F		-0.115179882		-1.026094438		-3.212069052
F		0.496536621		0.401121153		-0.035778806
F		1.065625119		-2.080022604		-0.072065642
