12
-185.77729729
Al		0.27580274		-2.327513967		-1.826953249
Al		2.035078562		-0.540590202		-0.807233916
Al		-0.334985669		0.309460553		-1.80191405
F		3.626131082		-0.179796035		-0.031098866
F		-0.166489726		-4.030831657		-2.229256492
F		2.099822284		-1.812885422		-2.288442594
F		1.529402371		0.656795586		-2.265371534
F		-1.483400983		1.65248662		-2.175528303
F		-1.141818795		-1.275896433		-0.996284283
F		-0.116669738		-1.017350502		-3.217995388
F		0.502946733		0.397920129		-0.040828758
F		1.074214463		-2.071547052		-0.065737226
