12
-185.77729729
Al		0.278677304		-2.321984205		-1.824983323
Al		2.039041598		-0.536841156		-0.804968982
Al		-0.332932541		0.313142357		-1.800538214
F		3.636775898		-0.177416945		-0.025910228
F		-0.162896122		-4.016916679		-2.22597898
F		2.087187088		-1.824352976		-2.293797636
F		1.528529569		0.662898648		-2.275085252
F		-1.485128863		1.654430044		-2.176099419
F		-1.133684571		-1.285814523		-1.001896701
F		-0.114714302		-1.028826918		-3.210217072
F		0.494533461		0.402121473		-0.034200696
F		1.062940949		-2.082671214		-0.074043272
