12
-185.77729729
Al		0.279087956		-2.321194239		-1.824701905
Al		2.039607746		-0.536305578		-0.80464542
Al		-0.332639237		0.313668329		-1.800341666
F		3.638296586		-0.177077075		-0.025168994
F		-0.16238275		-4.014928825		-2.225510764
F		2.08538206		-1.825991198		-2.294562642
F		1.528404883		0.663770514		-2.276472926
F		-1.485375703		1.654707676		-2.176181007
F		-1.132522539		-1.287231393		-1.002698475
F		-0.114434954		-1.030466406		-3.209105884
F		0.493331565		0.402721665		-0.03325383
F		1.061330447		-2.08426038		-0.07522985
