12
-185.77729729
Al		0.279293282		-2.320799256		-1.824561196
Al		2.03989082		-0.536037789		-0.804483639
Al		-0.332492585		0.313931315		-1.800243392
F		3.63905693		-0.17690714		-0.024798377
F		-0.162126064		-4.013934898		-2.225276656
F		2.084479546		-1.826810309		-2.294945145
F		1.52834254		0.664206447		-2.277166763
F		-1.485499123		1.654846492		-2.176221801
F		-1.131941523		-1.287939828		-1.003099362
F		-0.11429528		-1.03128615		-3.20855029
F		0.492730617		0.403021761		-0.032780397
F		1.060525196		-2.085054963		-0.075823139
