12
-185.77729729
Al		0.27956705		-2.320272612		-1.824373584
Al		2.040268252		-0.535680737		-0.804267931
Al		-0.332297049		0.314281963		-1.80011236
F		3.640070722		-0.17668056		-0.024304221
F		-0.161783816		-4.012609662		-2.224964512
F		2.083276194		-1.827902457		-2.295455149
F		1.528259416		0.664787691		-2.278091879
F		-1.485663683		1.65503158		-2.176276193
F		-1.131166835		-1.288884408		-1.003633878
F		-0.114109048		-1.032379142		-3.207809498
F		0.491929353		0.403421889		-0.032149153
F		1.059451528		-2.086114407		-0.076614191
