12
-185.77729729
Al		0.279635492		-2.320140951		-1.824326681
Al		2.04036261		-0.535591474		-0.804214004
Al		-0.332248165		0.314369625		-1.800079602
F		3.64032417		-0.176623915		-0.024180682
F		-0.161698254		-4.012278353		-2.224886476
F		2.082975356		-1.828175494		-2.29558265
F		1.528238635		0.664933002		-2.278323158
F		-1.485704823		1.655077852		-2.176289791
F		-1.130973163		-1.289120553		-1.003767507
F		-0.11406249		-1.03265239		-3.2076243
F		0.491729037		0.403521921		-0.031991342
F		1.059183111		-2.086379268		-0.076811954
