12
-185.77729729
Al		0.279703934		-2.32000929		-1.824279778
Al		2.040456968		-0.535502211		-0.804160077
Al		-0.332199281		0.314457287		-1.800046844
F		3.640577618		-0.17656727		-0.024057143
F		-0.161612692		-4.011947044		-2.22480844
F		2.082674518		-1.828448531		-2.295710151
F		1.528217854		0.665078313		-2.278554437
F		-1.485745963		1.655124124		-2.176303389
F		-1.130779491		-1.289356698		-1.003901136
F		-0.114015932		-1.032925638		-3.207439102
F		0.491528721		0.403621953		-0.031833531
F		1.058914694		-2.086644129		-0.077009717
