12
-185.77729729
Al		0.279772376		-2.319877629		-1.824232875
Al		2.040551326		-0.535412948		-0.80410615
Al		-0.332150397		0.314544949		-1.800014086
F		3.640831066		-0.176510625		-0.023933604
F		-0.16152713		-4.011615735		-2.224730404
F		2.08237368		-1.828721568		-2.295837652
F		1.528197073		0.665223624		-2.278785716
F		-1.485787103		1.655170396		-2.176316987
F		-1.130585819		-1.289592843		-1.004034765
F		-0.113969374		-1.033198886		-3.207253904
F		0.491328405		0.403721985		-0.03167572
F		1.058646277		-2.08690899		-0.07720748
