12
-185.77729729
Al		0.280046144		-2.319350985		-1.824045263
Al		2.040928758		-0.535055896		-0.803890442
Al		-0.331954861		0.314895597		-1.799883054
F		3.641844858		-0.176284045		-0.023439448
F		-0.161184882		-4.010290499		-2.22441826
F		2.081170328		-1.829813716		-2.296347656
F		1.528113949		0.665804868		-2.279710832
F		-1.485951663		1.655355484		-2.176371379
F		-1.129811131		-1.290537423		-1.004569281
F		-0.113783142		-1.034291878		-3.206513112
F		0.490527141		0.404122113		-0.031044476
F		1.057572609		-2.087968434		-0.077998532
