12
-185.77729729
Al		0.28025147		-2.318956002		-1.823904554
Al		2.041211832		-0.534788107		-0.803728661
Al		-0.331808209		0.315158583		-1.79978478
F		3.642605202		-0.17611411		-0.023068831
F		-0.160928196		-4.009296572		-2.224184152
F		2.080267814		-1.830632827		-2.296730159
F		1.528051606		0.666240801		-2.280404669
F		-1.486075083		1.6554943		-2.176412173
F		-1.129230115		-1.291245858		-1.004970168
F		-0.113643468		-1.035111622		-3.205957518
F		0.489926193		0.404422209		-0.030571043
F		1.056767358		-2.088763017		-0.078591821
