12
-185.77729729
Al		0.280388354		-2.31869268		-1.823810748
Al		2.041400548		-0.534609581		-0.803620807
Al		-0.331710441		0.315333907		-1.799719264
F		3.643112098		-0.17600082		-0.022821753
F		-0.160757072		-4.008633954		-2.22402808
F		2.079666138		-1.831178901		-2.296985161
F		1.528010044		0.666531423		-2.280867227
F		-1.486157363		1.655586844		-2.176439369
F		-1.128842771		-1.291718148		-1.005237426
F		-0.113550352		-1.035658118		-3.205587122
F		0.489525561		0.404622273		-0.030255421
F		1.056230524		-2.089292739		-0.078987347
