12
-185.77729729
Al		0.28059368		-2.318297697		-1.823670039
Al		2.041683622		-0.534341792		-0.803459026
Al		-0.331563789		0.315596893		-1.79962099
F		3.643872442		-0.175830885		-0.022451136
F		-0.160500386		-4.007640027		-2.223793972
F		2.078763624		-1.831998012		-2.297367664
F		1.527947701		0.666967356		-2.281561064
F		-1.486280783		1.65572566		-2.176480163
F		-1.128261755		-1.292426583		-1.005638313
F		-0.113410678		-1.036477862		-3.205031528
F		0.488924613		0.404922369		-0.029781988
F		1.055425273		-2.090087322		-0.079580636
