12
-185.77729729
Al		0.280867448		-2.317771053		-1.823482427
Al		2.042061054		-0.53398474		-0.803243318
Al		-0.331368253		0.315947541		-1.799489958
F		3.644886234		-0.175604305		-0.02195698
F		-0.160158138		-4.006314791		-2.223481828
F		2.077560272		-1.83309016		-2.297877668
F		1.527864577		0.6675486		-2.28248618
F		-1.486445343		1.655910748		-2.176534555
F		-1.127487067		-1.293371163		-1.006172829
F		-0.113224446		-1.037570854		-3.204290736
F		0.488123349		0.405322497		-0.029150744
F		1.054351605		-2.091146766		-0.080371688
