12
-185.77729729
Al		0.276076508		-2.326987323		-1.826765637
Al		2.035455994		-0.54023315		-0.807018208
Al		-0.334790133		0.309811201		-1.801783018
F		3.627144874		-0.179569455		-0.03060471
F		-0.166147478		-4.029506421		-2.228944348
F		2.098618932		-1.81397757		-2.288952598
F		1.529319247		0.65737683		-2.26629665
F		-1.483565543		1.652671708		-2.175582695
F		-1.141044107		-1.276841013		-0.996818799
F		-0.116483506		-1.018443494		-3.217254596
F		0.502145469		0.398320257		-0.040197514
F		1.073140795		-2.072606496		-0.066528278
