12
-185.77729729
Al		0.2812781		-2.316981087		-1.823201009
Al		2.042627202		-0.533449162		-0.802919756
Al		-0.331074949		0.316473513		-1.79929341
F		3.646406922		-0.175264435		-0.021215746
F		-0.159644766		-4.004326937		-2.223013612
F		2.075755244		-1.834728382		-2.298642674
F		1.527739891		0.668420466		-2.283873854
F		-1.486692183		1.65618838		-2.176616143
F		-1.126325035		-1.294788033		-1.006974603
F		-0.112945098		-1.039210342		-3.203179548
F		0.486921453		0.405922689		-0.028203878
F		1.052741103		-2.092735932		-0.081558266
