12
-185.77729729
Al		0.281551868		-2.316454443		-1.823013397
Al		2.043004634		-0.53309211		-0.802704048
Al		-0.330879413		0.316824161		-1.799162378
F		3.647420714		-0.175037855		-0.02072159
F		-0.159302518		-4.003001701		-2.222701468
F		2.074551892		-1.83582053		-2.299152678
F		1.527656767		0.66900171		-2.28479897
F		-1.486856743		1.656373468		-2.176670535
F		-1.125550347		-1.295732613		-1.007509119
F		-0.112758866		-1.040303334		-3.202438756
F		0.486120189		0.406322817		-0.027572634
F		1.051667435		-2.093795376		-0.082349318
