12
-185.77729729
Al		0.281894078		-2.315796138		-1.822778882
Al		2.043476424		-0.532645795		-0.802434413
Al		-0.330634993		0.317262471		-1.798998588
F		3.648687954		-0.17475463		-0.020103895
F		-0.158874708		-4.001345156		-2.222311288
F		2.073047702		-1.837185715		-2.299790183
F		1.527552862		0.669728265		-2.285955365
F		-1.487062443		1.656604828		-2.176738525
F		-1.124581987		-1.296913338		-1.008177264
F		-0.112526076		-1.041669574		-3.201512766
F		0.485118609		0.406822977		-0.026783579
F		1.05032535		-2.095119681		-0.083338133
