12
-185.77729729
Al		0.28196252		-2.315664477		-1.822731979
Al		2.043570782		-0.532556532		-0.802380486
Al		-0.330586109		0.317350133		-1.79896583
F		3.648941402		-0.174697985		-0.019980356
F		-0.158789146		-4.001013847		-2.222233252
F		2.072746864		-1.837458752		-2.299917684
F		1.527532081		0.669873576		-2.286186644
F		-1.487103583		1.6566511		-2.176752123
F		-1.124388315		-1.297149483		-1.008310893
F		-0.112479518		-1.041942822		-3.201327568
F		0.484918293		0.406923009		-0.026625768
F		1.050056933		-2.095384542		-0.083535896
