12
-185.77729729
Al		0.282236288		-2.315137833		-1.822544367
Al		2.043948214		-0.53219948		-0.802164778
Al		-0.330390573		0.317700781		-1.798834798
F		3.649955194		-0.174471405		-0.0194862
F		-0.158446898		-3.999688611		-2.221921108
F		2.071543512		-1.8385509		-2.300427688
F		1.527448957		0.67045482		-2.28711176
F		-1.487268143		1.656836188		-2.176806515
F		-1.123613627		-1.298094063		-1.008845409
F		-0.112293286		-1.043035814		-3.200586776
F		0.484117029		0.407323137		-0.025994524
F		1.048983265		-2.096443986		-0.084326948
