12
Properties=species:S:1:pos:R:3:forces:R:3 energy=-183.06940555 pbc="F F F"
Al    1.27863218    -0.005200683    2.555734573    -0.035804    -1.291275    2.781233
Al    1.3543025    1.1210229999999999    0.2140775    0.691182    -4.623497    11.508482
Al    0.235244938    1.36157925    -2.433644773    3.123394    0.762017    4.227428
F    -2.155586672    -0.796867453    -2.194267606    -2.720882    -2.333567    0.001371
F    2.030380253    -0.27135345299999997    0.663332952    -1.400855    3.85299    -2.977768
F    -0.026159361000000006    1.64614729    -3.555998833    0.516857    1.708751    -2.79229
F    -0.44770181000000003    1.885363753    -0.9179925489999999    -1.405295    -0.113647    -2.227198
F    2.6091705569999997    2.443845512    -0.330594443    0.347527    0.467746    -0.374564
F    1.1396397390000002    0.034067404999999995    -1.757081254    -1.332991    -0.197975    -2.265418
F    0.46767061699999996    1.551208929    1.489399039    1.872662    0.035147    -4.708196
F    2.453889969    0.555647076    3.541619437    -2.865485    -1.362712    -2.414206
F    0.120133175    -1.101449852    2.782816571    3.20969    3.096021    -0.758874
