      12
SCF Done            -187.18668954
Al            0.161000693        -0.774021358         1.796083239
Al            2.423633765        -1.615702672        -0.415054397
Al           -0.778944081        -1.830821658        -1.152399143
F             3.504668007        -0.240630893        -0.846844480
F            -1.750057454        -0.547194688        -1.984450497
F             2.896406495        -3.397517494        -0.518610843
F            -1.024891166        -3.626287402        -1.367540320
F             1.820196597        -1.432372793         1.297392402
F             0.942838664        -1.372168082        -1.481996265
F            -0.132005648        -1.467386963         3.428360689
F             0.186717071         1.034645199         1.386470636
F            -1.007435168        -1.597338283         0.685233514
