      12
SCF Done            -185.16959147
Al            0.239100572        -2.337228011        -1.748192661
Al            1.998272730        -0.550134656        -0.728501424
Al           -0.371609606         0.299922503        -1.723096883
F             3.627919288        -0.179316016        -0.037665823
F            -0.164029974        -4.031450293        -2.235641436
F             2.134773238        -1.822401476        -2.327562189
F             1.554969295         0.681290339        -2.303736420
F            -1.480434422         1.653008131        -2.181546711
F            -1.103665886        -1.265604652        -1.030666969
F            -0.115175974        -1.015363309        -3.271823981
F             0.518871596         0.382685398        -0.090174802
F             1.082148134        -2.049638210        -0.113321373
