      12
SCF Done            -186.39243991
Al           -0.101796657         1.662727096         2.151072821
Al            2.501453996         2.629092525         1.761556875
Al            1.334447558         2.686420181        -0.651202353
F             0.981163852         3.111411219         2.832033932
F            -1.598379447         2.703164243         2.172806195
F            -0.513172960        -0.007969518         2.749251260
F             1.789345869         0.886718285         1.930537234
F             2.945015842         1.875372572        -0.076265454
F             1.067540214         3.053235652        -2.399070704
F             1.727713368         4.033491287         0.629558365
F             4.090797466         3.143892311         2.456216168
F            -0.029764900         1.819394068         0.208444505
