12
Properties=species:S:1:pos:R:3:forces:R:3 energy=-185.62493767 pbc="F F F"
Al    0.442972772    -2.267919311    -2.174733761    -0.570587    -0.05055    1.316372
Al    2.17930693    -0.504025956    -1.168279524    -0.689744    -0.1716    1.247302
Al    -0.15980940600000001    0.334996203    -2.149963983    -0.52922    -0.229181    1.314672
F    3.6672082880000003    -0.17077631599999998    0.021046577000000004    0.050324    0.012426    -0.081097
F    -0.19399497400000001    -4.0932635930000005    -2.217072036    0.03686    -0.001255    -0.088901
F    1.9571224379999999    -1.775104376    -2.103970389    0.450206    -0.129612    -0.549542
F    1.417125395    0.556691339    -2.0817804200000003    0.34511    0.324209    -0.545223
F    -1.534441422    1.6950128309999999    -2.161989311    0.032185    0.018934    -0.088709
F    -1.327635686    -1.319192252    -0.849905369    0.541277    0.129848    -0.472711
F    -0.138351974    -1.023475409    -2.9834020810000004    0.042379    0.016673    -0.720699
F    0.44154979600000005    0.478073698    0.17559059800000001    0.204127    -0.212653    -0.668137
F    1.055736134    -2.17408691    0.150352227    0.087083    0.292762    -0.663327
