12
Properties=species:S:1:pos:R:3:forces:R:3 energy=-187.04749489 pbc="F F F"
Al    0.23127689299999998    -0.639730258    1.683632439    0.27858    -1.760863    -1.75702
Al    1.9583134649999998    -1.682163072    -0.412440297    0.825644    -0.366174    -0.496755
Al    -1.2648599809999999    -1.964750558    -1.241341543    -0.640151    -0.384998    -0.710293
F    3.6683558069999997    -0.280962693    -1.2105502799999999    -0.327758    -0.353144    0.177076
F    -1.657767754    -0.794367988    -1.722572197    0.272399    -0.345436    0.264507
F    2.798967195    -3.835226494    -0.486772443    -0.150784    0.629445    0.008131
F    -1.165035166    -3.304102702    -1.05475382    0.12632    0.633002    0.0485
F    2.006378897    -1.476744593    1.0860641020000001    -0.846702    0.489577    0.72362
F    1.176844164    -1.502627082    -1.442255465    0.016395    0.055994    -0.117475
F    0.110714152    -1.182207863    3.478437389    -0.171881    -0.306064    1.206822
F    0.41168927099999997    1.169222499    1.190052936    0.02543    1.200603    -0.280399
F    -0.863826468    -1.360536883    0.997233414    0.592508    0.50806    0.933286
