12
-186.56215295
Al		-0.368603438		1.05447656		-1.819877136
Al		-0.449184914		1.080366853		1.281549236
Al		-3.016119319		0.440957689		-1.858477342
F		-3.514935461		0.237139808		-3.598247308
F		-1.362065757		-0.557363301		-1.801085845
F		-1.960663687		2.062797803		-1.933636583
F		-2.052645925		0.800799139		0.454102824
F		0.586414327		1.316221243		-0.295653711
F		-0.243149775		2.708227397		2.061877747
F		0.326691715		-0.409609058		1.980458645
F		-4.280019292		0.22646107		-0.581090565
F		0.746136627		1.250485137		-3.233983429
