12
-186.56215295
Al		-0.345712438		0.94855556		-1.817857136
Al		-0.442645781		1.050110891		1.282126201
Al		-3.035133303		0.528935678		-1.860155609
F		-3.598793455		0.625157736		-3.605648561
F		-1.437737758		-0.581233304		-2.007074938
F		-1.883510693		2.079815789		-1.727516761
F		-1.960707777		0.375392255		0.462215709
F		0.636424416		1.084821297		-0.291240775
F		-0.536486581		2.862718404		1.706727771
F		0.527288808		-0.134980071		2.327424558
F		-4.263642167		0.150684126		-0.579645713
F		0.750516619		1.230218103		-3.233596444
