12
-186.56215295
Al		-0.348001538		0.95914766		-1.818059136
Al		-0.443299814		1.053136453		1.282068536
Al		-3.033231919		0.520137889		-1.859987542
F		-3.590407661		0.586356008		-3.604908208
F		-1.430170557		-0.578846301		-1.986475945
F		-1.891225987		2.078114003		-1.748128583
F		-1.969901725		0.417932839		0.461404524
F		0.631423327		1.107961243		-0.291682011
F		-0.507153075		2.847269297		1.742242747
F		0.507229015		-0.162442958		2.292728045
F		-4.265279992		0.15826177		-0.579790065
F		0.750078627		1.232244837		-3.233635129
