12
-186.56215295
Al		-0.343423338		0.93796346		-1.817655136
Al		-0.441992014		1.047085253		1.282183936
Al		-3.037034719		0.537733489		-1.860323142
F		-3.607179261		0.663959608		-3.606388408
F		-1.445304957		-0.583620301		-2.027673745
F		-1.875795387		2.081517603		-1.706904583
F		-1.951514125		0.332851439		0.463027124
F		0.641425327		1.061681243		-0.290799411
F		-0.565820475		2.878167497		1.671212747
F		0.547348415		-0.107517158		2.362121245
F		-4.262004592		0.14310637		-0.579501065
F		0.750954627		1.228191437		-3.233557729
