12
-186.56215295
Al		-0.373181638		1.07566076		-1.820281136
Al		-0.450492581		1.086418091		1.281433801
Al		-3.012316503		0.423362078		-1.858142009
F		-3.498163855		0.159536136		-3.596767361
F		-1.346931358		-0.552589304		-1.759888138
F		-1.976094293		2.059394189		-1.974860761
F		-2.071033377		0.885880655		0.452480109
F		0.576412416		1.362501297		-0.296536375
F		-0.184482181		2.677329204		2.132907771
F		0.286572408		-0.464534871		1.911065358
F		-4.283294567		0.241616526		-0.581379713
F		0.745260619		1.254538503		-3.234060844
