12
-186.56215295
Al		-0.380048938		1.10743706		-1.820887136
Al		-0.452454414		1.095494853		1.281260736
Al		-3.006612319		0.396968689		-1.857638342
F		-3.473006461		0.043130808		-3.594546808
F		-1.324229757		-0.545428301		-1.698091345
F		-1.999240187		2.054288803		-2.036696583
F		-2.098614925		1.013502639		0.450046324
F		0.561409327		1.431921243		-0.297860211
F		-0.096481275		2.630981897		2.239452747
F		0.226393215		-0.546923558		1.806975645
F		-4.288207792		0.26434957		-0.581813065
F		0.743946627		1.260618637		-3.234176929
