12
-186.56215295
Al		-0.359447038		1.01210816		-1.819069136
Al		-0.446569181		1.068264491		1.281780001
Al		-3.023724903		0.476148878		-1.859148809
F		-3.548478655		0.392346936		-3.601207961
F		-1.392334558		-0.566911304		-1.883481538
F		-1.929802493		2.069604989		-1.851188761
F		-2.015870577		0.630636455		0.457347909
F		0.606418416		1.223661297		-0.293888575
F		-0.360484381		2.770023804		1.919817771
F		0.406930608		-0.299757471		2.119244958
F		-4.273468367		0.196150326		-0.580512713
F		0.747888619		1.242378303		-3.233828644
