12
-186.56215295
Al		-0.341134238		0.92737136		-1.817453136
Al		-0.441338114		1.044059653		1.282241636
Al		-3.038936119		0.546531289		-1.860490942
F		-3.615565061		0.702761408		-3.607128508
F		-1.452872157		-0.586007301		-2.048272645
F		-1.868080087		2.083219403		-1.686292583
F		-1.942320325		0.290310739		0.463838424
F		0.646426327		1.038541243		-0.290358111
F		-0.595154175		2.893616597		1.635697747
F		0.567408115		-0.080054258		2.396817845
F		-4.260366892		0.13552867		-0.579356565
F		0.751392627		1.226164737		-3.233519029
12
-186.56215295
Al		-0.343423338		0.93796346		-1.817655136
Al		-0.441992014		1.047085253		1.282183936
Al		-3.037034719		0.537733489		-1.860323142
F		-3.607179261		0.663959608		-3.606388408
F		-1.445304957		-0.583620301		-2.027673745
F		-1.875795387		2.081517603		-1.706904583
F		-1.951514125		0.332851439		0.463027124
F		0.641425327		1.061681243		-0.290799411
F		-0.565820475		2.878167497		1.671212747
F		0.547348415		-0.107517158		2.362121245
F		-4.262004592		0.14310637		-0.579501065
F		0.750954627		1.228191437		-3.233557729
12
-186.56215295
Al		-0.345712438		0.94855556		-1.817857136
Al		-0.442645914		1.050110853		1.282126236
Al		-3.035133319		0.528935689		-1.860155342
F		-3.598793461		0.625157808		-3.605648308
F		-1.437737757		-0.581233301		-2.007074845
F		-1.883510687		2.079815803		-1.727516583
F		-1.960707925		0.375392139		0.462215824
F		0.636424327		1.084821243		-0.291240711
F		-0.536486775		2.862718397		1.706727747
F		0.527288715		-0.134980058		2.327424645
F		-4.263642292		0.15068407		-0.579645565
F		0.750516627		1.230218137		-3.233596429
12
-186.56215295
Al		-0.348001538		0.95914766		-1.818059136
Al		-0.443299814		1.053136453		1.282068536
Al		-3.033231919		0.520137889		-1.859987542
F		-3.590407661		0.586356008		-3.604908208
F		-1.430170557		-0.578846301		-1.986475945
F		-1.891225987		2.078114003		-1.748128583
F		-1.969901725		0.417932839		0.461404524
F		0.631423327		1.107961243		-0.291682011
F		-0.507153075		2.847269297		1.742242747
F		0.507229015		-0.162442958		2.292728045
F		-4.265279992		0.15826177		-0.579790065
F		0.750078627		1.232244837		-3.233635129
12
-186.56215295
Al		-0.350290638		0.96973976		-1.818261136
Al		-0.443953714		1.056162053		1.282010836
Al		-3.031330519		0.511340089		-1.859819742
F		-3.582021861		0.547554208		-3.604168108
F		-1.422603357		-0.576459301		-1.965877045
F		-1.898941287		2.076412203		-1.768740583
F		-1.979095525		0.460473539		0.460593224
F		0.626422327		1.131101243		-0.292123311
F		-0.477819375		2.831820197		1.777757747
F		0.487169315		-0.189905858		2.258031445
F		-4.266917692		0.16583947		-0.579934565
F		0.749640627		1.234271537		-3.233673829
12
-186.56215295
Al		-0.352579738		0.98033186		-1.818463136
Al		-0.444607614		1.059187653		1.281953136
Al		-3.029429119		0.502542289		-1.859651942
F		-3.573636061		0.508752408		-3.603428008
F		-1.415036157		-0.574072301		-1.945278145
F		-1.906656587		2.074710403		-1.789352583
F		-1.988289325		0.503014239		0.459781924
F		0.621421327		1.154241243		-0.292564611
F		-0.448485675		2.816371097		1.813272747
F		0.467109615		-0.217368758		2.223334845
F		-4.268555392		0.17341717		-0.580079065
F		0.749202627		1.236298237		-3.233712529
12
-186.56215295
Al		-0.354868838		0.99092396		-1.818665136
Al		-0.445261514		1.062213253		1.281895436
Al		-3.027527719		0.493744489		-1.859484142
F		-3.565250261		0.469950608		-3.602687908
F		-1.407468957		-0.571685301		-1.924679245
F		-1.914371887		2.073008603		-1.809964583
F		-1.997483125		0.545554939		0.458970624
F		0.616420327		1.177381243		-0.293005911
F		-0.419151975		2.800921997		1.848787747
F		0.447049915		-0.244831658		2.188638245
F		-4.270193092		0.18099487		-0.580223565
F		0.748764627		1.238324937		-3.233751229
12
-186.56215295
Al		-0.357157938		1.00151606		-1.818867136
Al		-0.445915414		1.065238853		1.281837736
Al		-3.025626319		0.484946689		-1.859316342
F		-3.556864461		0.431148808		-3.601947808
F		-1.399901757		-0.569298301		-1.904080345
F		-1.922087187		2.071306803		-1.830576583
F		-2.006676925		0.588095639		0.458159324
F		0.611419327		1.200521243		-0.293447211
F		-0.389818275		2.785472897		1.884302747
F		0.426990215		-0.272294558		2.153941645
F		-4.271830792		0.18857257		-0.580368065
F		0.748326627		1.240351637		-3.233789929
12
-186.56215295
Al		-0.359447038		1.01210816		-1.819069136
Al		-0.446569314		1.068264453		1.281780036
Al		-3.023724919		0.476148889		-1.859148542
F		-3.548478661		0.392347008		-3.601207708
F		-1.392334557		-0.566911301		-1.883481445
F		-1.929802487		2.069605003		-1.851188583
F		-2.015870725		0.630636339		0.457348024
F		0.606418327		1.223661243		-0.293888511
F		-0.360484575		2.770023797		1.919817747
F		0.406930515		-0.299757458		2.119245045
F		-4.273468492		0.19615027		-0.580512565
F		0.747888627		1.242378337		-3.233828629
12
-186.56215295
Al		-0.361736138		1.02270026		-1.819271136
Al		-0.447223214		1.071290053		1.281722336
Al		-3.021823519		0.467351089		-1.858980742
F		-3.540092861		0.353545208		-3.600467608
F		-1.384767357		-0.564524301		-1.862882545
F		-1.937517787		2.067903203		-1.871800583
F		-2.025064525		0.673177039		0.456536724
F		0.601417327		1.246801243		-0.294329811
F		-0.331150875		2.754574697		1.955332747
F		0.386870815		-0.327220358		2.084548445
F		-4.275106192		0.20372797		-0.580657065
F		0.747450627		1.244405037		-3.233867329
12
-186.56215295
Al		-0.364025238		1.03329236		-1.819473136
Al		-0.447877114		1.074315653		1.281664636
Al		-3.019922119		0.458553289		-1.858812942
F		-3.531707061		0.314743408		-3.599727508
F		-1.377200157		-0.562137301		-1.842283645
F		-1.945233087		2.066201403		-1.892412583
F		-2.034258325		0.715717739		0.455725424
F		0.596416327		1.269941243		-0.294771111
F		-0.301817175		2.739125597		1.990847747
F		0.366811115		-0.354683258		2.049851845
F		-4.276743892		0.21130567		-0.580801565
F		0.747012627		1.246431737		-3.233906029
12
-186.56215295
Al		-0.366314338		1.04388446		-1.819675136
Al		-0.448531014		1.077341253		1.281606936
Al		-3.018020719		0.449755489		-1.858645142
F		-3.523321261		0.275941608		-3.598987408
F		-1.369632957		-0.559750301		-1.821684745
F		-1.952948387		2.064499603		-1.913024583
F		-2.043452125		0.758258439		0.454914124
F		0.591415327		1.293081243		-0.295212411
F		-0.272483475		2.723676497		2.026362747
F		0.346751415		-0.382146158		2.015155245
F		-4.278381592		0.21888337		-0.580946065
F		0.746574627		1.248458437		-3.233944729
12
-186.56215295
Al		-0.368603438		1.05447656		-1.819877136
Al		-0.449184914		1.080366853		1.281549236
Al		-3.016119319		0.440957689		-1.858477342
F		-3.514935461		0.237139808		-3.598247308
F		-1.362065757		-0.557363301		-1.801085845
F		-1.960663687		2.062797803		-1.933636583
F		-2.052645925		0.800799139		0.454102824
F		0.586414327		1.316221243		-0.295653711
F		-0.243149775		2.708227397		2.061877747
F		0.326691715		-0.409609058		1.980458645
F		-4.280019292		0.22646107		-0.581090565
F		0.746136627		1.250485137		-3.233983429
12
-186.56215295
Al		-0.370892538		1.06506866		-1.820079136
Al		-0.449838814		1.083392453		1.281491536
Al		-3.014217919		0.432159889		-1.858309542
F		-3.506549661		0.198338008		-3.597507208
F		-1.354498557		-0.554976301		-1.780486945
F		-1.968378987		2.061096003		-1.954248583
F		-2.061839725		0.843339839		0.453291524
F		0.581413327		1.339361243		-0.296095011
F		-0.213816075		2.692778297		2.097392747
F		0.306632015		-0.437071958		1.945762045
F		-4.281656992		0.23403877		-0.581235065
F		0.745698627		1.252511837		-3.234022129
12
-186.56215295
Al		-0.373181638		1.07566076		-1.820281136
Al		-0.450492714		1.086418053		1.281433836
Al		-3.012316519		0.423362089		-1.858141742
F		-3.498163861		0.159536208		-3.596767108
F		-1.346931357		-0.552589301		-1.759888045
F		-1.976094287		2.059394203		-1.974860583
F		-2.071033525		0.885880539		0.452480224
F		0.576412327		1.362501243		-0.296536311
F		-0.184482375		2.677329197		2.132907747
F		0.286572315		-0.464534858		1.911065445
F		-4.283294692		0.24161647		-0.581379565
F		0.745260627		1.254538537		-3.234060829
12
-186.56215295
Al		-0.375470738		1.08625286		-1.820483136
Al		-0.451146614		1.089443653		1.281376136
Al		-3.010415119		0.414564289		-1.857973942
F		-3.489778061		0.120734408		-3.596027008
F		-1.339364157		-0.550202301		-1.739289145
F		-1.983809587		2.057692403		-1.995472583
F		-2.080227325		0.928421239		0.451668924
F		0.571411327		1.385641243		-0.296977611
F		-0.155148675		2.661880097		2.168422747
F		0.266512615		-0.491997758		1.876368845
F		-4.284932392		0.24919417		-0.581524065
F		0.744822627		1.256565237		-3.234099529
12
-186.56215295
Al		-0.377759838		1.09684496		-1.820685136
Al		-0.451800514		1.092469253		1.281318436
Al		-3.008513719		0.405766489		-1.857806142
F		-3.481392261		0.081932608		-3.595286908
F		-1.331796957		-0.547815301		-1.718690245
F		-1.991524887		2.055990603		-2.016084583
F		-2.089421125		0.970961939		0.450857624
F		0.566410327		1.408781243		-0.297418911
F		-0.125814975		2.646430997		2.203937747
F		0.246452915		-0.519460658		1.841672245
F		-4.286570092		0.25677187		-0.581668565
F		0.744384627		1.258591937		-3.234138229
12
-186.56215295
Al		-0.380048938		1.10743706		-1.820887136
Al		-0.452454414		1.095494853		1.281260736
Al		-3.006612319		0.396968689		-1.857638342
F		-3.473006461		0.043130808		-3.594546808
F		-1.324229757		-0.545428301		-1.698091345
F		-1.999240187		2.054288803		-2.036696583
F		-2.098614925		1.013502639		0.450046324
F		0.561409327		1.431921243		-0.297860211
F		-0.096481275		2.630981897		2.239452747
F		0.226393215		-0.546923558		1.806975645
F		-4.288207792		0.26434957		-0.581813065
F		0.743946627		1.260618637		-3.234176929
12
-186.56215295
Al		-0.382338038		1.11802916		-1.821089136
Al		-0.453108314		1.098520453		1.281203036
Al		-3.004710919		0.388170889		-1.857470542
F		-3.464620661		0.004329008		-3.593806708
F		-1.316662557		-0.543041301		-1.677492445
F		-2.006955487		2.052587003		-2.057308583
F		-2.107808725		1.056043339		0.449235024
F		0.556408327		1.455061243		-0.298301511
F		-0.067147575		2.615532797		2.274967747
F		0.206333515		-0.574386458		1.772279045
F		-4.289845492		0.27192727		-0.581957565
F		0.743508627		1.262645337		-3.234215629
12
-186.56215295
Al		-0.384627138		1.12862126		-1.821291136
Al		-0.453762214		1.101546053		1.281145336
Al		-3.002809519		0.379373089		-1.857302742
F		-3.456234861		-0.034472792		-3.593066608
F		-1.309095357		-0.540654301		-1.656893545
F		-2.014670787		2.050885203		-2.077920583
F		-2.117002525		1.098584039		0.448423724
F		0.551407327		1.478201243		-0.298742811
F		-0.037813875		2.600083697		2.310482747
F		0.186273815		-0.601849358		1.737582445
F		-4.291483192		0.27950497		-0.582102065
F		0.743070627		1.264672037		-3.234254329
