12
-186.56215295
Al		-0.341134238		0.92737136		-1.817453136
Al		-0.441337981		1.044059691		1.282241601
Al		-3.038936103		0.546531278		-1.860491209
F		-3.615565055		0.702761336		-3.607128761
F		-1.452872158		-0.586007304		-2.048272738
F		-1.868080093		2.083219389		-1.686292761
F		-1.942320177		0.290310855		0.463838309
F		0.646426416		1.038541297		-0.290358175
F		-0.595153981		2.893616604		1.635697771
F		0.567408208		-0.080054271		2.396817758
F		-4.260366767		0.135528726		-0.579356713
F		0.751392619		1.226164703		-3.233519044
12
-186.56215295
Al		-0.345712438		0.94855556		-1.817857136
Al		-0.442645781		1.050110891		1.282126201
Al		-3.035133303		0.528935678		-1.860155609
F		-3.598793455		0.625157736		-3.605648561
F		-1.437737758		-0.581233304		-2.007074938
F		-1.883510693		2.079815789		-1.727516761
F		-1.960707777		0.375392255		0.462215709
F		0.636424416		1.084821297		-0.291240775
F		-0.536486581		2.862718404		1.706727771
F		0.527288808		-0.134980071		2.327424558
F		-4.263642167		0.150684126		-0.579645713
F		0.750516619		1.230218103		-3.233596444
12
-186.56215295
Al		-0.350290638		0.96973976		-1.818261136
Al		-0.443953581		1.056162091		1.282010801
Al		-3.031330503		0.511340078		-1.859820009
F		-3.582021855		0.547554136		-3.604168361
F		-1.422603358		-0.576459304		-1.965877138
F		-1.898941293		2.076412189		-1.768740761
F		-1.979095377		0.460473655		0.460593109
F		0.626422416		1.131101297		-0.292123375
F		-0.477819181		2.831820204		1.777757771
F		0.487169408		-0.189905871		2.258031358
F		-4.266917567		0.165839526		-0.579934713
F		0.749640619		1.234271503		-3.233673844
12
-186.56215295
Al		-0.354868838		0.99092396		-1.818665136
Al		-0.445261381		1.062213291		1.281895401
Al		-3.027527703		0.493744478		-1.859484409
F		-3.565250255		0.469950536		-3.602688161
F		-1.407468958		-0.571685304		-1.924679338
F		-1.914371893		2.073008589		-1.809964761
F		-1.997482977		0.545555055		0.458970509
F		0.616420416		1.177381297		-0.293005975
F		-0.419151781		2.800922004		1.848787771
F		0.447050008		-0.244831671		2.188638158
F		-4.270192967		0.180994926		-0.580223713
F		0.748764619		1.238324903		-3.233751244
12
-186.56215295
Al		-0.359447038		1.01210816		-1.819069136
Al		-0.446569181		1.068264491		1.281780001
Al		-3.023724903		0.476148878		-1.859148809
F		-3.548478655		0.392346936		-3.601207961
F		-1.392334558		-0.566911304		-1.883481538
F		-1.929802493		2.069604989		-1.851188761
F		-2.015870577		0.630636455		0.457347909
F		0.606418416		1.223661297		-0.293888575
F		-0.360484381		2.770023804		1.919817771
F		0.406930608		-0.299757471		2.119244958
F		-4.273468367		0.196150326		-0.580512713
F		0.747888619		1.242378303		-3.233828644
12
-186.56215295
Al		-0.364025238		1.03329236		-1.819473136
Al		-0.447876981		1.074315691		1.281664601
Al		-3.019922103		0.458553278		-1.858813209
F		-3.531707055		0.314743336		-3.599727761
F		-1.377200158		-0.562137304		-1.842283738
F		-1.945233093		2.066201389		-1.892412761
F		-2.034258177		0.715717855		0.455725309
F		0.596416416		1.269941297		-0.294771175
F		-0.301816981		2.739125604		1.990847771
F		0.366811208		-0.354683271		2.049851758
F		-4.276743767		0.211305726		-0.580801713
F		0.747012619		1.246431703		-3.233906044
12
-186.56215295
Al		-0.368603438		1.05447656		-1.819877136
Al		-0.449184781		1.080366891		1.281549201
Al		-3.016119303		0.440957678		-1.858477609
F		-3.514935455		0.237139736		-3.598247561
F		-1.362065758		-0.557363304		-1.801085938
F		-1.960663693		2.062797789		-1.933636761
F		-2.052645777		0.800799255		0.454102709
F		0.586414416		1.316221297		-0.295653775
F		-0.243149581		2.708227404		2.061877771
F		0.326691808		-0.409609071		1.980458558
F		-4.280019167		0.226461126		-0.581090713
F		0.746136619		1.250485103		-3.233983444
12
-186.56215295
Al		-0.373181638		1.07566076		-1.820281136
Al		-0.450492581		1.086418091		1.281433801
Al		-3.012316503		0.423362078		-1.858142009
F		-3.498163855		0.159536136		-3.596767361
F		-1.346931358		-0.552589304		-1.759888138
F		-1.976094293		2.059394189		-1.974860761
F		-2.071033377		0.885880655		0.452480109
F		0.576412416		1.362501297		-0.296536375
F		-0.184482181		2.677329204		2.132907771
F		0.286572408		-0.464534871		1.911065358
F		-4.283294567		0.241616526		-0.581379713
F		0.745260619		1.254538503		-3.234060844
12
-186.56215295
Al		-0.377759838		1.09684496		-1.820685136
Al		-0.451800381		1.092469291		1.281318401
Al		-3.008513703		0.405766478		-1.857806409
F		-3.481392255		0.081932536		-3.595287161
F		-1.331796958		-0.547815304		-1.718690338
F		-1.991524893		2.055990589		-2.016084761
F		-2.089420977		0.970962055		0.450857509
F		0.566410416		1.408781297		-0.297418975
F		-0.125814781		2.646431004		2.203937771
F		0.246453008		-0.519460671		1.841672158
F		-4.286569967		0.256771926		-0.581668713
F		0.744384619		1.258591903		-3.234138244
12
-186.56215295
Al		-0.382338038		1.11802916		-1.821089136
Al		-0.453108181		1.098520491		1.281203001
Al		-3.004710903		0.388170878		-1.857470809
F		-3.464620655		0.004328936		-3.593806961
F		-1.316662558		-0.543041304		-1.677492538
F		-2.006955493		2.052586989		-2.057308761
F		-2.107808577		1.056043455		0.449234909
F		0.556408416		1.455061297		-0.298301575
F		-0.067147381		2.615532804		2.274967771
F		0.206333608		-0.574386471		1.772278958
F		-4.289845367		0.271927326		-0.581957713
F		0.743508619		1.262645303		-3.234215644
