12
Properties=species:S:1:pos:R:3:forces:R:3 energy=-176.87139114 pbc="F F F"
Al    0.10186334300000001    1.529452496    1.731342521    9.683278    6.193773    -25.850048
Al    2.3253282960000003    2.4896206249999997    1.812302975    -0.229265    0.009    1.213353
Al    1.4235318579999998    2.670735281    -0.538593853    -3.436651    -2.537318    5.820007
F    1.114739452    3.488351319    3.117377932    0.117822    -1.049522    -0.247516
F    -1.348742547    2.477125343    2.1492415950000003    -0.208956    -0.129206    0.920605
F    -0.51659976    0.099699382    2.7932977599999997    0.108331    0.141294    1.000304
F    1.485643569    0.661142185    1.932337334    -5.018596    0.927039    0.632179
F    3.078094742    1.781080872    -0.331633654    -0.889246    0.720446    -1.317786
F    1.144903714    3.033200552    -2.259936104    0.352149    0.149893    0.45231
F    1.597454768    4.260762087    0.40855246500000003    -0.467357    -0.890729    -1.757965
F    3.832302266    3.065217811    2.3956580680000004    1.062165    0.593607    0.503286
F    0.1995119    1.851526268    0.6504656050000001    -1.073674    -4.128277    18.631271
