12
Properties=species:S:1:pos:R:3:forces:R:3 energy=-180.53235629 pbc="F F F"
Al    -0.06152065699999999    1.6687807959999998    2.146923721    -1.868019    1.291118    0.640113
Al    2.842199496    2.206647025    2.060085775    -3.840649    -12.149284    1.845986
Al    1.305157458    2.457841781    -0.47387805299999997    6.755096    -6.067914    0.482747
F    0.944900352    3.1321119189999997    2.851876232    -0.906262    1.124041    0.522254
F    -1.564608147    2.679626743    2.176247495    2.382542    -1.664807    -0.093239
F    -0.52578386    -0.079195218    2.77555586    0.101198    0.17474    -0.177504
F    2.222837969    1.555888585    1.927444634    6.344866    11.036397    -0.249408
F    2.945701942    1.880765672    -0.04237325400000001    -4.993498    2.445915    -2.920278
F    1.029396114    3.134895952    -2.694299804    -0.564315    0.882342    -1.348917
F    1.729598868    4.196169787    0.6256682650000001    -0.140242    3.823663    1.697894
F    3.470358966    2.796275811    2.219032968    -2.163194    -0.726939    -0.89867
F    0.0547354    1.846428768    0.148602305    -1.107524    -0.169272    0.499021
