12
Properties=species:S:1:pos:R:3:forces:R:3 energy=-183.22404825 pbc="F F F"
Al    0.280749672    -2.307929111    -1.822390961    0.079982    0.308117    0.072764
Al    2.01593133    -0.545207456    -0.816605824    -0.287539    -0.065261    -0.140272
Al    -0.321632106    0.293258603    -1.797637783    0.207566    -0.242843    0.067512
F    3.6030390879999996    -0.185032816    -0.042363523    -0.065518    -0.014868    -0.031962
F    -0.160691674    -4.008501193    -2.223982636    0.018218    0.070185    0.016574
F    1.739258838    -1.242916576    -2.660816289    -0.784527    1.677271    -1.586085
F    1.4530303949999999    -0.006937261000000028    -2.6490538200000002    0.025929    -1.822442    -1.619385
F    -1.467299422    1.633656031    -2.1702894109999997    0.047292    -0.05533    0.015383
F    -0.601981286    -1.154853452    -0.460164969    1.292561    0.279837    2.048258
F    0.628542826    -0.844512209    -3.126963881    2.360496    0.549175    -0.266178
F    0.22250829600000002    -0.317277602    0.017744198000000003    -1.042001    -2.091775    0.695042
F    0.5087377339999999    -1.55325881    0.005983627    -1.85246    1.407934    0.728349
