      12
SCF Done            -183.22404825
Al            0.280931672        -2.307228111        -1.822225961
Al            2.015277330        -0.545355456        -0.816924824
Al           -0.321160106         0.292705603        -1.797484783
F             3.602637088        -0.185123816        -0.042559523
F            -0.160579674        -4.008070193        -2.223880636
F             1.954800838        -1.548522576        -2.497068289
F             1.512989395         0.359291739        -2.478912820
F            -1.467009422         1.633316031        -2.170195411
F            -0.915048286        -1.224951452        -0.712634969
F             0.240337826        -0.933559209        -3.216596881
F             0.357603296         0.067900398         0.025048198
F             0.799414734        -1.839914810         0.006893627
