12
-186.56215295
Al		-0.364002347		1.033186439		-1.819471116
Al		-0.447870442		1.074285435		1.281665178
Al		-3.019941117		0.458641256		-1.858814887
F		-3.531790913		0.315131354		-3.599735162
F		-1.37727583		-0.562161174		-1.842489727
F		-1.94515594		2.066218407		-1.892206641
F		-2.034166239		0.715292448		0.455733422
F		0.596466426		1.269709897		-0.294766762
F		-0.302110318		2.739280095		1.990492621
F		0.367011805		-0.354408642		2.050198724
F		-4.27672739		0.211229949		-0.580800268
F		0.747016999		1.246411436		-3.233905657
