12
-186.56215295
Al		-0.363796328		1.03223315		-1.819452936
Al		-0.447811591		1.074013131		1.281670371
Al		-3.020112243		0.459433058		-1.858829989
F		-3.532545635		0.318623516		-3.599801771
F		-1.377956878		-0.562376004		-1.844343628
F		-1.944461563		2.066371569		-1.890351561
F		-2.033338797		0.711463785		0.455806439
F		0.596916516		1.267627297		-0.294727045
F		-0.304750351		2.740670514		1.987296271
F		0.368817178		-0.351936981		2.053321418
F		-4.276579997		0.210547956		-0.580787263
F		0.747056419		1.246229033		-3.233902174
