12
-186.56215295
Al		-0.363727655		1.031915387		-1.819446876
Al		-0.447791974		1.073922363		1.281672102
Al		-3.020169285		0.459696992		-1.858835023
F		-3.532797209		0.31978757		-3.599823974
F		-1.378183894		-0.562447614		-1.844961595
F		-1.944230104		2.066422623		-1.889733201
F		-2.033062983		0.710187564		0.455830778
F		0.597066546		1.266933097		-0.294713806
F		-0.305630362		2.741133987		1.986230821
F		0.369418969		-0.351113094		2.054362316
F		-4.276530866		0.210320625		-0.580782928
F		0.747069559		1.246168232		-3.233901013
