12
-186.56215295
Al		-0.363704764		1.031809466		-1.819444856
Al		-0.447785435		1.073892107		1.281672679
Al		-3.020188299		0.45978497		-1.858836701
F		-3.532881067		0.320175588		-3.599831375
F		-1.378259566		-0.562471484		-1.845167584
F		-1.944152951		2.066439641		-1.889527081
F		-2.032971045		0.709762157		0.455838891
F		0.597116556		1.266701697		-0.294709393
F		-0.305923699		2.741288478		1.985875671
F		0.369619566		-0.350838465		2.054709282
F		-4.276514489		0.210244848		-0.580781483
F		0.747073939		1.246147965		-3.233900626
