12
-186.56215295
Al		-0.363681873		1.031703545		-1.819442836
Al		-0.447778896		1.073861851		1.281673256
Al		-3.020207313		0.459872948		-1.858838379
F		-3.532964925		0.320563606		-3.599838776
F		-1.378335238		-0.562495354		-1.845373573
F		-1.944075798		2.066456659		-1.889320961
F		-2.032879107		0.70933675		0.455847004
F		0.597166566		1.266470297		-0.29470498
F		-0.306217036		2.741442969		1.985520521
F		0.369820163		-0.350563836		2.055056248
F		-4.276498112		0.210169071		-0.580780038
F		0.747078319		1.246127698		-3.233900239
