12
-186.56215295
Al		-0.363636091		1.031491703		-1.819438796
Al		-0.447765818		1.073801339		1.28167441
Al		-3.020245341		0.460048904		-1.858841735
F		-3.533132641		0.321339642		-3.599853578
F		-1.378486582		-0.562543094		-1.845785551
F		-1.943921492		2.066490695		-1.888908721
F		-2.032695231		0.708485936		0.45586323
F		0.597266586		1.266007497		-0.294696154
F		-0.30680371		2.741751951		1.984810221
F		0.370221357		-0.350014578		2.05575018
F		-4.276465358		0.210017517		-0.580777148
F		0.747087079		1.246087164		-3.233899465
