12
-186.56215295
Al		-0.363567418		1.03117394		-1.819432736
Al		-0.447746201		1.073710571		1.281676141
Al		-3.020302383		0.460312838		-1.858846769
F		-3.533384215		0.322503696		-3.599875781
F		-1.378713598		-0.562614704		-1.846403518
F		-1.943690033		2.066541749		-1.888290361
F		-2.032419417		0.707209715		0.455887569
F		0.597416616		1.265313297		-0.294682915
F		-0.307683721		2.742215424		1.983744771
F		0.370823148		-0.349190691		2.056791078
F		-4.276416227		0.209790186		-0.580772813
F		0.747100219		1.246026363		-3.233898304
