12
-186.56215295
Al		-0.363544527		1.031068019		-1.819430716
Al		-0.447739662		1.073680315		1.281676718
Al		-3.020321397		0.460400816		-1.858848447
F		-3.533468073		0.322891714		-3.599883182
F		-1.37878927		-0.562638574		-1.846609507
F		-1.94361288		2.066558767		-1.888084241
F		-2.032327479		0.706784308		0.455895682
F		0.597466626		1.265081897		-0.294678502
F		-0.307977058		2.742369915		1.983389621
F		0.371023745		-0.348916062		2.057138044
F		-4.27639985		0.209714409		-0.580771368
F		0.747104599		1.246006096		-3.233897917
