12
-186.56215295
Al		-0.363407181		1.030432493		-1.819418596
Al		-0.447700428		1.073498779		1.28168018
Al		-3.020435481		0.460928684		-1.858858515
F		-3.533971221		0.325219822		-3.599927588
F		-1.379243302		-0.562781794		-1.847845441
F		-1.943149962		2.066660875		-1.886847521
F		-2.031775851		0.704231866		0.45594436
F		0.597766686		1.263693497		-0.294652024
F		-0.30973708		2.743296861		1.981258721
F		0.372227327		-0.347268288		2.05921984
F		-4.276301588		0.209259747		-0.580762698
F		0.747130879		1.245884494		-3.233895595
