12
-186.56215295
Al		-0.363956565		1.032974597		-1.819467076
Al		-0.447857364		1.074224923		1.281666332
Al		-3.019979145		0.458817212		-1.858818243
F		-3.531958629		0.31590739		-3.599749964
F		-1.377427174		-0.562208914		-1.842901705
F		-1.945001634		2.066252443		-1.891794401
F		-2.033982363		0.714441634		0.455749648
F		0.596566446		1.269247097		-0.294757936
F		-0.302696992		2.739589077		1.989782321
F		0.367412999		-0.353859384		2.050892656
F		-4.276694636		0.211078395		-0.580797378
F		0.747025759		1.246370902		-3.233904883
