12
-186.56215295
Al		-0.363292726		1.029902888		-1.819408496
Al		-0.447667733		1.073347499		1.281683065
Al		-3.020530551		0.461368574		-1.858866905
F		-3.534390511		0.327159912		-3.599964593
F		-1.379621662		-0.562901144		-1.848875386
F		-1.942764197		2.066745965		-1.885816921
F		-2.031316161		0.702104831		0.455984925
F		0.598016736		1.262536497		-0.294629959
F		-0.311203765		2.744069316		1.979482971
F		0.373230312		-0.345895143		2.06095467
F		-4.276219703		0.208880862		-0.580755473
F		0.747152779		1.245783159		-3.23389366
