12
-186.56215295
Al		-0.363246944		1.029691046		-1.819404456
Al		-0.447654655		1.073286987		1.281684219
Al		-3.020568579		0.46154453		-1.858870261
F		-3.534558227		0.327935948		-3.599979395
F		-1.379773006		-0.562948884		-1.849287364
F		-1.942609891		2.066780001		-1.885404681
F		-2.031132285		0.701254017		0.456001151
F		0.598116756		1.262073697		-0.294621133
F		-0.311790439		2.744378298		1.978772671
F		0.373631506		-0.345345885		2.061648602
F		-4.276186949		0.208729308		-0.580752583
F		0.747161539		1.245742625		-3.233892886
