12
-186.56215295
Al		-0.363224053		1.029585125		-1.819402436
Al		-0.447648116		1.073256731		1.281684796
Al		-3.020587593		0.461632508		-1.858871939
F		-3.534642085		0.328323966		-3.599986796
F		-1.379848678		-0.562972754		-1.849493353
F		-1.942532738		2.066797019		-1.885198561
F		-2.031040347		0.70082861		0.456009264
F		0.598166766		1.261842297		-0.29461672
F		-0.312083776		2.744532789		1.978417521
F		0.373832103		-0.345071256		2.061995568
F		-4.276170572		0.208653531		-0.580751138
F		0.747165919		1.245722358		-3.233892499
