12
-186.56215295
Al		-0.363086707		1.028949599		-1.819390316
Al		-0.447608882		1.073075195		1.281688258
Al		-3.020701677		0.462160376		-1.858882007
F		-3.535145233		0.330652074		-3.600031202
F		-1.38030271		-0.563115974		-1.850729287
F		-1.94206982		2.066899127		-1.883961841
F		-2.030488719		0.698276168		0.456057942
F		0.598466826		1.260453897		-0.294590242
F		-0.313843798		2.745459735		1.976286621
F		0.375035685		-0.343423482		2.064077364
F		-4.27607231		0.208198869		-0.580742468
F		0.747192199		1.245600756		-3.233890177
