12
-186.56215295
Al		-0.362995143		1.028525915		-1.819382236
Al		-0.447582726		1.072954171		1.281690566
Al		-3.020777733		0.462512288		-1.858888719
F		-3.535480665		0.332204146		-3.600060806
F		-1.380605398		-0.563211454		-1.851553243
F		-1.941761208		2.066967199		-1.883137361
F		-2.030120967		0.69657454		0.456090394
F		0.598666866		1.259528297		-0.29457259
F		-0.315017146		2.746077699		1.974866021
F		0.375838073		-0.342324966		2.065465228
F		-4.276006802		0.207895761		-0.580736688
F		0.747209719		1.245519688		-3.233888629
