12
-186.56215295
Al		-0.362972252		1.028419994		-1.819380216
Al		-0.447576187		1.072923915		1.281691143
Al		-3.020796747		0.462600266		-1.858890397
F		-3.535564523		0.332592164		-3.600068207
F		-1.38068107		-0.563235324		-1.851759232
F		-1.941684055		2.066984217		-1.882931241
F		-2.030029029		0.696149133		0.456098507
F		0.598716876		1.259296897		-0.294568177
F		-0.315310483		2.74623219		1.974510871
F		0.37603867		-0.342050337		2.065812194
F		-4.275990425		0.207819984		-0.580735243
F		0.747214099		1.245499421		-3.233888242
