12
-186.56215295
Al		-0.362949361		1.028314073		-1.819378196
Al		-0.447569648		1.072893659		1.28169172
Al		-3.020815761		0.462688244		-1.858892075
F		-3.535648381		0.332980182		-3.600075608
F		-1.380756742		-0.563259194		-1.851965221
F		-1.941606902		2.067001235		-1.882725121
F		-2.029937091		0.695723726		0.45610662
F		0.598766886		1.259065497		-0.294563764
F		-0.31560382		2.746386681		1.974155721
F		0.376239267		-0.341775708		2.06615916
F		-4.275974048		0.207744207		-0.580733798
F		0.747218479		1.245479154		-3.233887855
