12
-186.56215295
Al		-0.362880688		1.02799631		-1.819372136
Al		-0.447550031		1.072802891		1.281693451
Al		-3.020872803		0.462952178		-1.858897109
F		-3.535899955		0.334144236		-3.600097811
F		-1.380983758		-0.563330804		-1.852583188
F		-1.941375443		2.067052289		-1.882106761
F		-2.029661277		0.694447505		0.456130959
F		0.598916916		1.258371297		-0.294550525
F		-0.316483831		2.746850154		1.973090271
F		0.376841058		-0.340951821		2.067200058
F		-4.275924917		0.207516876		-0.580729463
F		0.747231619		1.245418353		-3.233886694
