12
-186.56215295
Al		-0.362857797		1.027890389		-1.819370116
Al		-0.447543492		1.072772635		1.281694028
Al		-3.020891817		0.463040156		-1.858898787
F		-3.535983813		0.334532254		-3.600105212
F		-1.38105943		-0.563354674		-1.852789177
F		-1.94129829		2.067069307		-1.881900641
F		-2.029569339		0.694022098		0.456139072
F		0.598966926		1.258139897		-0.294546112
F		-0.316777168		2.747004645		1.972735121
F		0.377041655		-0.340677192		2.067547024
F		-4.27590854		0.207441099		-0.580728018
F		0.747235999		1.245398086		-3.233886307
