12
-186.56215295
Al		-0.362812015		1.027678547		-1.819366076
Al		-0.447530414		1.072712123		1.281695182
Al		-3.020929845		0.463216112		-1.858902143
F		-3.536151529		0.33530829		-3.600120014
F		-1.381210774		-0.563402414		-1.853201155
F		-1.941143984		2.067103343		-1.881488401
F		-2.029385463		0.693171284		0.456155298
F		0.599066946		1.257677097		-0.294537286
F		-0.317363842		2.747313627		1.972024821
F		0.377442849		-0.340127934		2.068240956
F		-4.275875786		0.207289545		-0.580725128
F		0.747244759		1.245357552		-3.233885533
