12
-186.56215295
Al		-0.362674669		1.027043021		-1.819353956
Al		-0.44749118		1.072530587		1.281698644
Al		-3.021043929		0.46374398		-1.858912211
F		-3.536654677		0.337636398		-3.60016442
F		-1.381664806		-0.563545634		-1.854437089
F		-1.940681066		2.067205451		-1.880251681
F		-2.028833835		0.690618842		0.456203976
F		0.599367006		1.256288697		-0.294510808
F		-0.319123864		2.748240573		1.969893921
F		0.378646431		-0.33848016		2.070322752
F		-4.275777524		0.206834883		-0.580716458
F		0.747271039		1.24523595		-3.233883211
