12
-186.56215295
Al		-0.362651778		1.0269371		-1.819351936
Al		-0.447484641		1.072500331		1.281699221
Al		-3.021062943		0.463831958		-1.858913889
F		-3.536738535		0.338024416		-3.600171821
F		-1.381740478		-0.563569504		-1.854643078
F		-1.940603913		2.067222469		-1.880045561
F		-2.028741897		0.690193435		0.456212089
F		0.599417016		1.256057297		-0.294506395
F		-0.319417201		2.748395064		1.969538771
F		0.378847028		-0.338205531		2.070669718
F		-4.275761147		0.206759106		-0.580715013
F		0.747275419		1.245215683		-3.233882824
