12
-186.56215295
Al		-0.362537323		1.026407495		-1.819341836
Al		-0.447451946		1.072349051		1.281702106
Al		-3.021158013		0.464271848		-1.858922279
F		-3.537157825		0.339964506		-3.600208826
F		-1.382118838		-0.563688854		-1.855673023
F		-1.940218148		2.067307559		-1.879014961
F		-2.028282207		0.6880664		0.456252654
F		0.599667066		1.254900297		-0.29448433
F		-0.320883886		2.749167519		1.967763021
F		0.379850013		-0.336832386		2.072404548
F		-4.275679262		0.206380221		-0.580707788
F		0.747297319		1.245114348		-3.233880889
