12
-186.56215295
Al		-0.362491541		1.026195653		-1.819337796
Al		-0.447438868		1.072288539		1.28170326
Al		-3.021196041		0.464447804		-1.858925635
F		-3.537325541		0.340740542		-3.600223628
F		-1.382270182		-0.563736594		-1.856085001
F		-1.940063842		2.067341595		-1.878602721
F		-2.028098331		0.687215586		0.45626888
F		0.599767086		1.254437497		-0.294475504
F		-0.32147056		2.749476501		1.967052721
F		0.380251207		-0.336283128		2.07309848
F		-4.275646508		0.206228667		-0.580704898
F		0.747306079		1.245073814		-3.233880115
