12
-186.56215295
Al		-0.36246865		1.026089732		-1.819335776
Al		-0.447432329		1.072258283		1.281703837
Al		-3.021215055		0.464535782		-1.858927313
F		-3.537409399		0.34112856		-3.600231029
F		-1.382345854		-0.563760464		-1.85629099
F		-1.939986689		2.067358613		-1.878396601
F		-2.028006393		0.686790179		0.456276993
F		0.599817096		1.254206097		-0.294471091
F		-0.321763897		2.749630992		1.966697571
F		0.380451804		-0.336008499		2.073445446
F		-4.275630131		0.20615289		-0.580703453
F		0.747310459		1.245053547		-3.233879728
