12
-186.56215295
Al		-0.362399977		1.025771969		-1.819329716
Al		-0.447412712		1.072167515		1.281705568
Al		-3.021272097		0.464799716		-1.858932347
F		-3.537660973		0.342292614		-3.600253232
F		-1.38257287		-0.563832074		-1.856908957
F		-1.93975523		2.067409667		-1.877778241
F		-2.027730579		0.685513958		0.456301332
F		0.599967126		1.253511897		-0.294457852
F		-0.322643908		2.750094465		1.965632121
F		0.381053595		-0.335184612		2.074486344
F		-4.275581		0.205925559		-0.580699118
F		0.747323599		1.244992746		-3.233878567
