12
-186.56215295
Al		-0.362377086		1.025666048		-1.819327696
Al		-0.447406173		1.072137259		1.281706145
Al		-3.021291111		0.464887694		-1.858934025
F		-3.537744831		0.342680632		-3.600260633
F		-1.382648542		-0.563855944		-1.857114946
F		-1.939678077		2.067426685		-1.877572121
F		-2.027638641		0.685088551		0.456309445
F		0.600017136		1.253280497		-0.294453439
F		-0.322937245		2.750248956		1.965276971
F		0.381254192		-0.334909983		2.07483331
F		-4.275564623		0.205849782		-0.580697673
F		0.747327979		1.244972479		-3.23387818
