12
-186.56215295
Al		-0.362354195		1.025560127		-1.819325676
Al		-0.447399634		1.072107003		1.281706722
Al		-3.021310125		0.464975672		-1.858935703
F		-3.537828689		0.34306865		-3.600268034
F		-1.382724214		-0.563879814		-1.857320935
F		-1.939600924		2.067443703		-1.877366001
F		-2.027546703		0.684663144		0.456317558
F		0.600067146		1.253049097		-0.294449026
F		-0.323230582		2.750403447		1.964921821
F		0.381454789		-0.334635354		2.075180276
F		-4.275548246		0.205774005		-0.580696228
F		0.747332359		1.244952212		-3.233877793
