12
-186.56215295
Al		-0.362331304		1.025454206		-1.819323656
Al		-0.447393095		1.072076747		1.281707299
Al		-3.021329139		0.46506365		-1.858937381
F		-3.537912547		0.343456668		-3.600275435
F		-1.382799886		-0.563903684		-1.857526924
F		-1.939523771		2.067460721		-1.877159881
F		-2.027454765		0.684237737		0.456325671
F		0.600117156		1.252817697		-0.294444613
F		-0.323523919		2.750557938		1.964566671
F		0.381655386		-0.334360725		2.075527242
F		-4.275531869		0.205698228		-0.580694783
F		0.747336739		1.244931945		-3.233877406
