12
-186.56215295
Al		-0.362262631		1.025136443		-1.819317596
Al		-0.447373478		1.071985979		1.28170903
Al		-3.021386181		0.465327584		-1.858942415
F		-3.538164121		0.344620722		-3.600297638
F		-1.383026902		-0.563975294		-1.858144891
F		-1.939292312		2.067511775		-1.876541521
F		-2.027178951		0.682961516		0.45635001
F		0.600267186		1.252123497		-0.294431374
F		-0.32440393		2.751021411		1.963501221
F		0.382257177		-0.333536838		2.07656814
F		-4.275482738		0.205470897		-0.580690448
F		0.747349879		1.244871144		-3.233876245
