12
-186.56215295
Al		-0.362056612		1.024183154		-1.819299416
Al		-0.447314627		1.071713675		1.281714223
Al		-3.021557307		0.466119386		-1.858957517
F		-3.538918843		0.348112884		-3.600364247
F		-1.38370795		-0.564190124		-1.859998792
F		-1.938597935		2.067664937		-1.874686441
F		-2.026351509		0.679132853		0.456423027
F		0.600717276		1.250040897		-0.294391657
F		-0.327043963		2.75241183		1.960304871
F		0.38406255		-0.331065177		2.079690834
F		-4.275335345		0.204788904		-0.580677443
F		0.747389299		1.244688741		-3.233872762
