12
-186.56215295
Al		-0.361987939		1.023865391		-1.819293356
Al		-0.44729501		1.071622907		1.281715954
Al		-3.021614349		0.46638332		-1.858962551
F		-3.539170417		0.349276938		-3.60038645
F		-1.383934966		-0.564261734		-1.860616759
F		-1.938366476		2.067715991		-1.874068081
F		-2.026075695		0.677856632		0.456447366
F		0.600867306		1.249346697		-0.294378418
F		-0.327923974		2.752875303		1.959239421
F		0.384664341		-0.33024129		2.080731732
F		-4.275286214		0.204561573		-0.580673108
F		0.747402439		1.24462794		-3.233871601
