12
-186.56215295
Al		-0.361919266		1.023547628		-1.819287296
Al		-0.447275393		1.071532139		1.281717685
Al		-3.021671391		0.466647254		-1.858967585
F		-3.539421991		0.350440992		-3.600408653
F		-1.384161982		-0.564333344		-1.861234726
F		-1.938135017		2.067767045		-1.873449721
F		-2.025799881		0.676580411		0.456471705
F		0.601017336		1.248652497		-0.294365179
F		-0.328803985		2.753338776		1.958173971
F		0.385266132		-0.329417403		2.08177263
F		-4.275237083		0.204334242		-0.580668773
F		0.747415579		1.244567139		-3.23387044
