12
-186.56215295
Al		-0.361896375		1.023441707		-1.819285276
Al		-0.447268854		1.071501883		1.281718262
Al		-3.021690405		0.466735232		-1.858969263
F		-3.539505849		0.35082901		-3.600416054
F		-1.384237654		-0.564357214		-1.861440715
F		-1.938057864		2.067784063		-1.873243601
F		-2.025707943		0.676155004		0.456479818
F		0.601067346		1.248421097		-0.294360766
F		-0.329097322		2.753493267		1.957818821
F		0.385466729		-0.329142774		2.082119596
F		-4.275220706		0.204258465		-0.580667328
F		0.747419959		1.244546872		-3.233870053
