12
-186.56215295
Al		-0.361804811		1.023018023		-1.819277196
Al		-0.447242698		1.071380859		1.28172057
Al		-3.021766461		0.467087144		-1.858975975
F		-3.539841281		0.352381082		-3.600445658
F		-1.384540342		-0.564452694		-1.862264671
F		-1.937749252		2.067852135		-1.872419121
F		-2.025340191		0.674453376		0.45651227
F		0.601267386		1.247495497		-0.294343114
F		-0.33027067		2.754111231		1.956398221
F		0.386269117		-0.328044258		2.08350746
F		-4.275155198		0.203955357		-0.580661548
F		0.747437479		1.244465804		-3.233868505
