12
-186.56215295
Al		-0.36429993		1.034563412		-1.819497376
Al		-0.447955449		1.074678763		1.281657677
Al		-3.019693935		0.457497542		-1.858793073
F		-3.530700759		0.31008712		-3.599638949
F		-1.376292094		-0.561850864		-1.83981187
F		-1.946158929		2.065997173		-1.894886201
F		-2.035361433		0.720822739		0.455627953
F		0.595816296		1.272718097		-0.294824131
F		-0.298296937		2.737271712		1.995109571
F		0.364404044		-0.357978819		2.045688166
F		-4.276940291		0.21221505		-0.580819053
F		0.746960059		1.246674907		-3.233910688
