12
-186.56215295
Al		-0.364483058		1.03541078		-1.819513536
Al		-0.448007761		1.074920811		1.281653061
Al		-3.019541823		0.456793718		-1.858779649
F		-3.530029895		0.306982976		-3.599579741
F		-1.375686718		-0.561659904		-1.838163958
F		-1.946776153		2.065861029		-1.896535161
F		-2.036096937		0.724225995		0.455563049
F		0.595416216		1.274569297		-0.294859435
F		-0.295950241		2.736035784		1.997950771
F		0.362799268		-0.360175851		2.042912438
F		-4.277071307		0.212821266		-0.580830613
F		0.746925019		1.246837043		-3.233913784
