12
-186.56215295
Al		-0.364574622		1.035834464		-1.819521616
Al		-0.448033917		1.075041835		1.281650753
Al		-3.019465767		0.456441806		-1.858772937
F		-3.529694463		0.305430904		-3.599550137
F		-1.37538403		-0.561564424		-1.837340002
F		-1.947084765		2.065792957		-1.897359641
F		-2.036464689		0.725927623		0.455530597
F		0.595216176		1.275494897		-0.294877087
F		-0.294776893		2.73541782		1.999371371
F		0.36199688		-0.361274367		2.041524574
F		-4.277136815		0.213124374		-0.580836393
F		0.746907499		1.246918111		-3.233915332
