12
-186.56215295
Al		-0.364689077		1.036364069		-1.819531716
Al		-0.448066612		1.075193115		1.281647868
Al		-3.019370697		0.456001916		-1.858764547
F		-3.529275173		0.303490814		-3.599513132
F		-1.37500567		-0.561445074		-1.836310057
F		-1.94747053		2.065707867		-1.898390241
F		-2.036924379		0.728054658		0.455490032
F		0.594966126		1.276651897		-0.294899152
F		-0.293310208		2.734645365		2.001147121
F		0.360993895		-0.362647512		2.039789744
F		-4.2772187		0.213503259		-0.580843618
F		0.746885599		1.247019446		-3.233917267
