12
-186.56215295
Al		-0.364093911		1.033610123		-1.819479196
Al		-0.447896598		1.074406459		1.28166287
Al		-3.019865061		0.458289344		-1.858808175
F		-3.531455481		0.313579282		-3.599705558
F		-1.376973142		-0.562065694		-1.841665771
F		-1.945464552		2.066150335		-1.893031121
F		-2.034533991		0.716994076		0.45570097
F		0.596266386		1.270635497		-0.294784414
F		-0.30093697		2.738662131		1.991913221
F		0.366209417		-0.355507158		2.04881086
F		-4.276792898		0.211533057		-0.580806048
F		0.746999479		1.246492504		-3.233907205
