12
-186.56215295
Al		-0.364711968		1.03646999		-1.819533736
Al		-0.448073151		1.075223371		1.281647291
Al		-3.019351683		0.455913938		-1.858762869
F		-3.529191315		0.303102796		-3.599505731
F		-1.374929998		-0.561421204		-1.836104068
F		-1.947547683		2.065690849		-1.898596361
F		-2.037016317		0.728480065		0.455481919
F		0.594916116		1.276883297		-0.294903565
F		-0.293016871		2.734490874		2.001502271
F		0.360793298		-0.362922141		2.039442778
F		-4.277235077		0.213579036		-0.580845063
F		0.746881219		1.247039713		-3.233917654
