12
-186.56215295
Al		-0.364803532		1.036893674		-1.819541816
Al		-0.448099307		1.075344395		1.281644983
Al		-3.019275627		0.455562026		-1.858756157
F		-3.528855883		0.301550724		-3.599476127
F		-1.37462731		-0.561325724		-1.835280112
F		-1.947856295		2.065622777		-1.899420841
F		-2.037384069		0.730181693		0.455449467
F		0.594716076		1.277808897		-0.294921217
F		-0.291843523		2.73387291		2.002922871
F		0.35999091		-0.364020657		2.038054914
F		-4.277300585		0.213882144		-0.580850843
F		0.746863699		1.247120781		-3.233919202
