12
-186.56215295
Al		-0.364826423		1.036999595		-1.819543836
Al		-0.448105846		1.075374651		1.281644406
Al		-3.019256613		0.455474048		-1.858754479
F		-3.528772025		0.301162706		-3.599468726
F		-1.374551638		-0.561301854		-1.835074123
F		-1.947933448		2.065605759		-1.899626961
F		-2.037476007		0.7306071		0.455441354
F		0.594666066		1.278040297		-0.29492563
F		-0.291550186		2.733718419		2.003278021
F		0.359790313		-0.364295286		2.037707948
F		-4.277316962		0.213957921		-0.580852288
F		0.746859319		1.247141048		-3.233919589
