12
-186.56215295
Al		-0.364849314		1.037105516		-1.819545856
Al		-0.448112385		1.075404907		1.281643829
Al		-3.019237599		0.45538607		-1.858752801
F		-3.528688167		0.300774688		-3.599461325
F		-1.374475966		-0.561277984		-1.834868134
F		-1.948010601		2.065588741		-1.899833081
F		-2.037567945		0.731032507		0.455433241
F		0.594616056		1.278271697		-0.294930043
F		-0.291256849		2.733563928		2.003633171
F		0.359589716		-0.364569915		2.037360982
F		-4.277333339		0.214033698		-0.580853733
F		0.746854939		1.247161315		-3.233919976
