12
-186.56215295
Al		-0.365032442		1.037952884		-1.819562016
Al		-0.448164697		1.075646955		1.281639213
Al		-3.019085487		0.454682246		-1.858739377
F		-3.528017303		0.297670544		-3.599402117
F		-1.37387059		-0.561087024		-1.833220222
F		-1.948627825		2.065452597		-1.901482041
F		-2.038303449		0.734435763		0.455368337
F		0.594215976		1.280122897		-0.294965347
F		-0.288910153		2.732328		2.006474371
F		0.35798494		-0.366766947		2.034585254
F		-4.277464355		0.214639914		-0.580865293
F		0.746819899		1.247323451		-3.233923072
