12
-186.56215295
Al		-0.365101115		1.038270647		-1.819568076
Al		-0.448184314		1.075737723		1.281637482
Al		-3.019028445		0.454418312		-1.858734343
F		-3.527765729		0.29650649		-3.599379914
F		-1.373643574		-0.561015414		-1.832602255
F		-1.948859284		2.065401543		-1.902100401
F		-2.038579263		0.735711984		0.455343998
F		0.594065946		1.280817097		-0.294978586
F		-0.288030142		2.731864527		2.007539821
F		0.357383149		-0.367590834		2.033544356
F		-4.277513486		0.214867245		-0.580869628
F		0.746806759		1.247384252		-3.233924233
