12
-186.56215295
Al		-0.365146897		1.038482489		-1.819572116
Al		-0.448197392		1.075798235		1.281636328
Al		-3.018990417		0.454242356		-1.858730987
F		-3.527598013		0.295730454		-3.599365112
F		-1.37349223		-0.560967674		-1.832190277
F		-1.94901359		2.065367507		-1.902512641
F		-2.038763139		0.736562798		0.455327772
F		0.593965926		1.281279897		-0.294987412
F		-0.287443468		2.731555545		2.008250121
F		0.356981955		-0.368140092		2.032850424
F		-4.27754624		0.215018799		-0.580872518
F		0.746797999		1.247424786		-3.233925007
