12
-186.56215295
Al		-0.365169788		1.03858841		-1.819574136
Al		-0.448203931		1.075828491		1.281635751
Al		-3.018971403		0.454154378		-1.858729309
F		-3.527514155		0.295342436		-3.599357711
F		-1.373416558		-0.560943804		-1.831984288
F		-1.949090743		2.065350489		-1.902718761
F		-2.038855077		0.736988205		0.455319659
F		0.593915916		1.281511297		-0.294991825
F		-0.287150131		2.731401054		2.008605271
F		0.356781358		-0.368414721		2.032503458
F		-4.277562617		0.215094576		-0.580873963
F		0.746793619		1.247445053		-3.233925394
