12
-186.56215295
Al		-0.365284243		1.039118015		-1.819584236
Al		-0.448236626		1.075979771		1.281632866
Al		-3.018876333		0.453714488		-1.858720919
F		-3.527094865		0.293402346		-3.599320706
F		-1.373038198		-0.560824454		-1.830954343
F		-1.949476508		2.065265399		-1.903749361
F		-2.039314767		0.73911524		0.455279094
F		0.593665866		1.282668297		-0.29501389
F		-0.285683446		2.730628599		2.010381021
F		0.355778373		-0.369787866		2.030768628
F		-4.277644502		0.215473461		-0.580881188
F		0.746771719		1.247546388		-3.233927329
