12
-186.56215295
Al		-0.365421589		1.039753541		-1.819596356
Al		-0.44827586		1.076161307		1.281629404
Al		-3.018762249		0.45318662		-1.858710851
F		-3.526591717		0.291074238		-3.5992763
F		-1.372584166		-0.560681234		-1.829718409
F		-1.949939426		2.065163291		-1.904986081
F		-2.039866395		0.741667682		0.455230416
F		0.593365806		1.284056697		-0.295040368
F		-0.283923424		2.729701653		2.012511921
F		0.354574791		-0.37143564		2.028686832
F		-4.277742764		0.215928123		-0.580889858
F		0.746745439		1.24766799		-3.233929651
