12
-186.56215295
Al		-0.365467371		1.039965383		-1.819600396
Al		-0.448288938		1.076221819		1.28162825
Al		-3.018724221		0.453010664		-1.858707495
F		-3.526424001		0.290298202		-3.599261498
F		-1.372432822		-0.560633494		-1.829306431
F		-1.950093732		2.065129255		-1.905398321
F		-2.040050271		0.742518496		0.45521419
F		0.593265786		1.284519497		-0.295049194
F		-0.28333675		2.729392671		2.013222221
F		0.354173597		-0.371984898		2.0279929
F		-4.277775518		0.216079677		-0.580892748
F		0.746736679		1.247708524		-3.233930425
