12
-186.56215295
Al		-0.365581826		1.040494988		-1.819610496
Al		-0.448321633		1.076373099		1.281625365
Al		-3.018629151		0.452570774		-1.858699105
F		-3.526004711		0.288358112		-3.599224493
F		-1.372054462		-0.560514144		-1.828276486
F		-1.950479497		2.065044165		-1.906428921
F		-2.040509961		0.744645531		0.455173625
F		0.593015736		1.285676497		-0.295071259
F		-0.281870065		2.728620216		2.014997971
F		0.353170612		-0.373358043		2.02625807
F		-4.277857403		0.216458562		-0.580899973
F		0.746714779		1.247809859		-3.23393236
