12
-186.56215295
Al		-0.365650499		1.040812751		-1.819616556
Al		-0.44834125		1.076463867		1.281623634
Al		-3.018572109		0.45230684		-1.858694071
F		-3.525753137		0.287194058		-3.59920229
F		-1.371827446		-0.560442534		-1.827658519
F		-1.950710956		2.064993111		-1.907047281
F		-2.040785775		0.745921752		0.455149286
F		0.592865706		1.286370697		-0.295084498
F		-0.280990054		2.728156743		2.016063421
F		0.352568821		-0.37418193		2.025217172
F		-4.277906534		0.216685893		-0.580904308
F		0.746701639		1.24787066		-3.233933521
