12
-186.56215295
Al		-0.365696281		1.041024593		-1.819620596
Al		-0.448354328		1.076524379		1.28162248
Al		-3.018534081		0.452130884		-1.858690715
F		-3.525585421		0.286418022		-3.599187488
F		-1.371676102		-0.560394794		-1.827246541
F		-1.950865262		2.064959075		-1.907459521
F		-2.040969651		0.746772566		0.45513306
F		0.592765686		1.286833497		-0.295093324
F		-0.28040338		2.727847761		2.016773721
F		0.352167627		-0.374731188		2.02452324
F		-4.277939288		0.216837447		-0.580907198
F		0.746692879		1.247911194		-3.233934295
