12
-186.56215295
Al		-0.364208366		1.034139728		-1.819489296
Al		-0.447929293		1.074557739		1.281659985
Al		-3.019769991		0.457849454		-1.858799785
F		-3.531036191		0.311639192		-3.599668553
F		-1.376594782		-0.561946344		-1.840635826
F		-1.945850317		2.066065245		-1.894061721
F		-2.034993681		0.719121111		0.455660405
F		0.596016336		1.271792497		-0.294806479
F		-0.299470285		2.737889676		1.993688971
F		0.365206432		-0.356880303		2.04707603
F		-4.276874783		0.211911942		-0.580813273
F		0.746977579		1.246593839		-3.23390914
