12
-186.56215295
Al		-0.365925191		1.042083803		-1.819640796
Al		-0.448419718		1.076826939		1.28161671
Al		-3.018343941		0.451251104		-1.858673935
F		-3.524746841		0.282537842		-3.599113478
F		-1.370919382		-0.560156094		-1.825186651
F		-1.951636792		2.064788895		-1.909520721
F		-2.041889031		0.751026636		0.45505193
F		0.592265586		1.289147497		-0.295137454
F		-0.27747001		2.726302851		2.020325221
F		0.350161657		-0.377477478		2.02105358
F		-4.278103058		0.217595217		-0.580921648
F		0.746649079		1.248113864		-3.233938165
