12
-186.56215295
Al		-0.366062537		1.042719329		-1.819652916
Al		-0.448458952		1.077008475		1.281613248
Al		-3.018229857		0.450723236		-1.858663867
F		-3.524243693		0.280209734		-3.599069072
F		-1.37046535		-0.560012874		-1.823950717
F		-1.95209971		2.064686787		-1.910757441
F		-2.042440659		0.753579078		0.455003252
F		0.591965526		1.290535897		-0.295163932
F		-0.275709988		2.725375905		2.022456121
F		0.348958075		-0.379125252		2.018971784
F		-4.27820132		0.218049879		-0.580930318
F		0.746622799		1.248235466		-3.233940487
