12
-186.56215295
Al		-0.364231257		1.034245649		-1.819491316
Al		-0.447935832		1.074587995		1.281659408
Al		-3.019750977		0.457761476		-1.858798107
F		-3.530952333		0.311251174		-3.599661152
F		-1.37651911		-0.561922474		-1.840429837
F		-1.94592747		2.066048227		-1.894267841
F		-2.035085619		0.719546518		0.455652292
F		0.595966326		1.272023897		-0.294810892
F		-0.299176948		2.737735185		1.994044121
F		0.365005835		-0.357154932		2.046729064
F		-4.27689116		0.211987719		-0.580814718
F		0.746973199		1.246614106		-3.233909527
