12
-186.56215295
Al		-0.366108319		1.042931171		-1.819656956
Al		-0.44847203		1.077068987		1.281612094
Al		-3.018191829		0.45054728		-1.858660511
F		-3.524075977		0.279433698		-3.59905427
F		-1.370314006		-0.559965134		-1.823538739
F		-1.952254016		2.064652751		-1.911169681
F		-2.042624535		0.754429892		0.454987026
F		0.591865506		1.290998697		-0.295172758
F		-0.275123314		2.725066923		2.023166421
F		0.348556881		-0.37967451		2.018277852
F		-4.278234074		0.218201433		-0.580933208
F		0.746614039		1.248276		-3.233941261
