12
-186.56215295
Al		-0.36613121		1.043037092		-1.819658976
Al		-0.448478569		1.077099243		1.281611517
Al		-3.018172815		0.450459302		-1.858658833
F		-3.523992119		0.27904568		-3.599046869
F		-1.370238334		-0.559941264		-1.82333275
F		-1.952331169		2.064635733		-1.911375801
F		-2.042716473		0.754855299		0.454978913
F		0.591815496		1.291230097		-0.295177171
F		-0.274829977		2.724912432		2.023521571
F		0.348356284		-0.379949139		2.017930886
F		-4.278250451		0.21827721		-0.580934653
F		0.746609659		1.248296267		-3.233941648
