12
-186.56215295
Al		-0.366199883		1.043354855		-1.819665036
Al		-0.448498186		1.077190011		1.281609786
Al		-3.018115773		0.450195368		-1.858653799
F		-3.523740545		0.277881626		-3.599024666
F		-1.370011318		-0.559869654		-1.822714783
F		-1.952562628		2.064584679		-1.911994161
F		-2.042992287		0.75613152		0.454954574
F		0.591665466		1.291924297		-0.29519041
F		-0.273949966		2.724448959		2.024587021
F		0.347754493		-0.380773026		2.016889988
F		-4.278299582		0.218504541		-0.580938988
F		0.746596519		1.248357068		-3.233942809
