12
-186.56215295
Al		-0.366291447		1.043778539		-1.819673116
Al		-0.448524342		1.077311035		1.281607478
Al		-3.018039717		0.449843456		-1.858647087
F		-3.523405113		0.276329554		-3.598995062
F		-1.36970863		-0.559774174		-1.821890827
F		-1.95287124		2.064516607		-1.912818641
F		-2.043360039		0.757833148		0.454922122
F		0.591465426		1.292849897		-0.295208062
F		-0.272776618		2.723830995		2.026007621
F		0.346952105		-0.381871542		2.015502124
F		-4.27836509		0.218807649		-0.580944768
F		0.746578999		1.248438136		-3.233944357
