12
Properties=species:S:1:pos:R:3:forces:R:3 energy=-184.67774316 pbc="F F F"
Al    -0.006490828000000004    -2.317903811    -1.461633961    -0.417957    2.910961    3.336305
Al    2.17045193    -0.670954456    -0.805157624    -0.942084    -0.912857    -1.292721
Al    0.019543794000000003    0.419323303    -2.1631209829999998    0.967996    -1.695693    -0.673859
F    3.639331088    0.19545248399999998    0.11262507699999999    0.564752    0.107073    0.860745
F    -0.214732974    -3.890443193    -2.699067536    0.186007    -2.750417    -2.792839
F    1.889778038    -1.857283376    -2.220544189    -0.032654    0.379946    0.151617
F    1.855758695    0.731357639    -2.43126782    0.089373    0.144604    -0.042342
F    -1.933880222    1.088545731    -1.676881111    -0.980212    0.739728    0.356896
F    -1.240749786    -1.049044852    -0.982830969    0.176431    0.322151    -0.003431
F    -0.06363197400000001    -1.104642809    -3.198944881    0.156364    0.292239    0.230362
F    0.634906096    0.340914498    -0.321073102    0.12459    0.122437    -0.10981
F    1.109962734    -2.1229830099999996    0.100066827    0.107397    0.33983    -0.020923
