      12
SCF Done            -184.67774316
Al            0.104815172        -2.371094811        -1.457167961
Al            2.115144930        -0.520659456        -0.981788624
Al           -0.244911206         0.331876303        -1.997678983
F             3.533652088        -0.203090516         0.166631077
F             0.027271026        -3.983203193        -2.650229536
F             1.948778038        -1.869032376        -2.230750189
F             1.648472695         0.754500639        -2.451696820
F            -1.585874222         1.626415731        -1.953037111
F            -1.247818786        -1.177238852        -0.913433969
F            -0.101546974        -1.136647809        -3.106184881
F             0.575576096         0.347358498        -0.267746102
F             1.126636734        -2.038696010         0.096540827
