12
Properties=species:S:1:pos:R:3:forces:R:3 energy=-185.78664133 pbc="F F F"
Al    -1.833685161    2.44156912    -1.259845291    -0.911293    -0.803967    -0.979559
Al    -0.6087708549999999    0.092955406    -2.452090374    -0.352813    0.062422    0.747702
Al    -2.011884276    -0.434923018    -0.363137737    0.680882    0.272742    -0.386581
F    -0.9984320409999999    3.295135136    0.220373743    0.662927    -0.204076    0.566299
F    -2.7977011469999997    3.107396993    -2.731999692    0.053169    -0.331438    -0.013001
F    -1.50576728    -1.6854376270000002    -1.652187361    -0.073675    -0.038008    -0.074188
F    -2.2778283619999997    1.344982683    0.21899186199999998    -0.015938    -0.044232    0.031285
F    -3.568393163    -0.851257332    0.663847253    -0.737949    0.439904    0.693434
F    0.8356197980000001    -0.303644841    -3.6093195039999997    0.517331    0.695309    -0.683996
F    -0.519182925    1.995866114    -2.626981531    0.036847    -0.03349    -0.026637
F    -2.496990057    0.482072651    -2.146361928    0.054057    0.171791    0.08112
F    -0.042639068    0.105310339    -0.598839608    0.086455    -0.186959    0.044122
