      12
SCF Done            -185.78664133
Al           -1.778240161         2.452850120        -1.320685291
Al           -0.476685855        -0.001366594        -2.322376374
Al           -2.170192276        -0.345936018        -0.464076737
F            -0.668956041         3.362172136        -0.141163257
F            -3.092677147         3.047379993        -2.408319692
F            -1.414132280        -1.666793627        -1.752738361
F            -2.556156362         1.434882683         0.066305862
F            -3.399065163        -0.991030332         0.757739253
F             0.700012798        -0.157010841        -3.740214504
F            -0.323235925         1.889204114        -2.383897531
F            -2.401816057         0.501437651        -2.250796928
F            -0.250109068         0.063097339        -0.371180608
