12
Properties=species:S:1:pos:R:3:forces:R:3 energy=-186.50701384 pbc="F F F"
Al    0.234523093    -0.490624958    1.679523939    -0.668812    -0.096813    -0.6643
Al    2.310352965    -1.9023007719999998    -0.680510997    0.165044    -0.171802    -0.284637
Al    -0.829332981    -1.795829358    -0.964852743    0.290428    0.557548    0.904568
F    3.6657220070000003    -0.635295393    -0.97030808    0.509867    -0.359183    -0.311651
F    -2.037845554    -0.360954088    -1.345527197    -0.014013    0.589316    0.236158
F    3.0498282949999997    -3.587967294    -0.375025643    0.602448    -0.025314    -0.365759
F    -0.8743618660000001    -3.6477068019999996    -1.08370092    0.220409    -0.463355    0.443093
F    1.528587297    -1.5426372929999999    0.889646602    -0.135079    -0.066603    -0.109009
F    0.844547964    -1.671987082    -1.849522165    -0.011741    0.002224    0.041915
F    0.007158851999999993    -1.095932363    3.396999289    -0.488121    -0.103213    0.000959
F    0.415956071    1.296186399    1.347167636    -0.310994    0.02812    -0.030341
F    -1.055634768    -1.437904483    0.820018314    -0.159436    0.109075    0.139007
