12
Properties=species:S:1:pos:R:3:forces:R:3 energy=-187.22441454 pbc="F F F"
Al    0.378465793    -0.561150158    1.785649139    0.030472    -0.046756    0.226774
Al    2.351907765    -1.825108072    -0.559009497    -0.127134    0.064733    -0.141389
Al    -0.919927581    -1.822312158    -1.024245543    0.06277    -0.028258    -0.06754
F    3.245825107    -0.315118393    -1.11663258    0.135124    0.188434    -0.066604
F    -1.734094454    -0.7492188879999999    -2.2748739970000003    -0.119353    0.151614    -0.155449
F    3.055274595    -3.523027894    -0.5311790430000001    0.083386    -0.267894    -0.034575
F    -1.407347566    -3.575251402    -0.58830372    -0.026103    -0.220772    0.006639
F    1.779723397    -1.581810593    1.174846202    0.092136    -0.11043    0.171827
F    0.8386561640000001    -1.853824682    -1.6037660649999999    0.060098    -0.000341    0.00906
F    -0.11013484800000001    -1.478944563    3.3241666889999997    -0.021339    -0.029527    0.072035
F    0.7888941709999999    1.265030699    1.676870336    0.055056    0.324056    -0.077341
F    -1.025926268    -0.848421783    0.5681484139999999    -0.225113    -0.024866    0.056563
