12
Properties=species:S:1:pos:R:3:forces:R:3 energy=-187.16345626 pbc="F F F"
Al    0.10062199300000002    -0.604504158    1.7147269390000002    -0.287989    0.005034    -0.084335
Al    2.564997565    -1.671411072    -0.12838589700000003    0.155198    0.180394    0.483642
Al    -0.581741981    -1.956364558    -1.283085743    0.457541    -0.145655    -0.304606
F    3.374578907    -0.511922593    -1.45901018    -0.012784    0.027489    -0.24339
F    -1.942218454    -0.569062688    -1.484021797    -0.178276    0.109313    0.147893
F    2.507663395    -3.515047494    -0.769048243    -0.089668    -0.107859    -0.157847
F    -1.432501566    -3.6185320020000002    -0.91653372    -0.159916    -0.055875    0.113056
F    1.8087815969999999    -1.526006193    1.542011002    0.014617    -0.127573    0.0797
F    1.153222764    -1.566859082    -1.429009465    -0.002656    -0.008405    -0.005317
F    0.28336615200000004    -1.197102363    3.4565960889999996    0.114328    -0.012617    0.044151
F    0.328152371    1.111943299    1.136389936    -0.025162    0.007727    -0.008527
F    -0.976009268    -1.239744983    0.431710214    0.014768    0.128028    -0.06442
