12
-185.77729729
Al		0.275540722		-2.328037648		-1.827166326
Al		2.034607763		-0.540970802		-0.807247278
Al		-0.335099588		0.309130489		-1.802221963
F		3.6250024		-0.180051591		-0.031344031
F		-0.166817515		-4.032153246		-2.229599971
F		2.100812659		-1.811479549		-2.288082621
F		1.529493949		0.656154872		-2.264462145
F		-1.483135991		1.652326861		-2.175691567
F		-1.142230601		-1.274862152		-0.995470912
F		-0.11729483		-1.016366373		-3.218850375
F		0.503749104		0.397581882		-0.041464997
F		1.075567525		-2.070784582		-0.064940082
