12
-185.77729729
Al		0.276703972		-2.327744311		-1.829687361
Al		2.02536443		-0.543302054		-0.787215024
Al		-0.327019505		0.311168305		-1.819733182
F		3.61362829		-0.182920215		-0.006693922
F		-0.165386074		-4.031792193		-2.232702136
F		2.079727936		-1.780420774		-2.30293569
F		1.530330895		0.650267342		-2.266019118
F		-1.473193223		1.654834432		-2.197239511
F		-1.106305283		-1.265981753		-0.967864267
F		-0.16074197		-1.02714381		-3.23015568
F		0.503858697		0.403708101		-0.041959502
F		1.103227531		-2.100185008		-0.064336974
