12
-185.77729729
Al		0.275669972		-2.328005055		-1.827446441
Al		2.033580726		-0.54122983		-0.805021472
Al		-0.334201801		0.309356913		-1.804167654
F		3.62373861		-0.180370327		-0.02860513
F		-0.166658466		-4.032113129		-2.229944656
F		2.098469912		-1.808028574		-2.289732962
F		1.529586943		0.655500702		-2.264635142
F		-1.482031239		1.65260548		-2.178085783
F		-1.138238899		-1.273875441		-0.992403507
F		-0.12212229		-1.017563866		-3.22010652
F		0.503761281		0.398262573		-0.041519942
F		1.078640859		-2.074051296		-0.06487307
