12
-185.77729729
Al		0.275705222		-2.327996166		-1.827522836
Al		2.033300625		-0.541300474		-0.804414434
Al		-0.33395695		0.309418665		-1.804698297
F		3.62339394		-0.180457255		-0.027858157
F		-0.166615089		-4.032102188		-2.230038661
F		2.097830981		-1.807087399		-2.290183055
F		1.529612305		0.655322292		-2.264682323
F		-1.481729943		1.652681467		-2.178738751
F		-1.137150253		-1.273606338		-0.991566942
F		-0.12343887		-1.017890455		-3.220449105
F		0.503764602		0.398448216		-0.041534927
F		1.079479041		-2.074942218		-0.064854794
