12
-185.77729729
Al		0.275740472		-2.327987277		-1.827599231
Al		2.033020524		-0.541371118		-0.803807396
Al		-0.333712099		0.309480417		-1.80522894
F		3.62304927		-0.180544183		-0.027111184
F		-0.166571712		-4.032091247		-2.230132666
F		2.09719205		-1.806146224		-2.290633148
F		1.529637667		0.655143882		-2.264729504
F		-1.481428647		1.652757454		-2.179391719
F		-1.136061607		-1.273337235		-0.990730377
F		-0.12475545		-1.018217044		-3.22079169
F		0.503767923		0.398633859		-0.041549912
F		1.080317223		-2.07583314		-0.064836518
