12
-185.77729729
Al		0.275752222		-2.327984314		-1.827624696
Al		2.032927157		-0.541394666		-0.80360505
Al		-0.333630482		0.309501001		-1.805405821
F		3.62293438		-0.180573159		-0.026862193
F		-0.166557253		-4.0320876		-2.230164001
F		2.096979073		-1.805832499		-2.290783179
F		1.529646121		0.655084412		-2.264745231
F		-1.481328215		1.652782783		-2.179609375
F		-1.135698725		-1.273247534		-0.990451522
F		-0.12519431		-1.018325907		-3.220905885
F		0.50376903		0.39869574		-0.041554907
F		1.080596617		-2.076130114		-0.064830426
