12
-185.77729729
Al		0.275763972		-2.327981351		-1.827650161
Al		2.03283379		-0.541418214		-0.803402704
Al		-0.333548865		0.309521585		-1.805582702
F		3.62281949		-0.180602135		-0.026613202
F		-0.166542794		-4.032083953		-2.230195336
F		2.096766096		-1.805518774		-2.29093321
F		1.529654575		0.655024942		-2.264760958
F		-1.481227783		1.652808112		-2.179827031
F		-1.135335843		-1.273157833		-0.990172667
F		-0.12563317		-1.01843477		-3.22102008
F		0.503770137		0.398757621		-0.041559902
F		1.080876011		-2.076427088		-0.064824334
