12
-185.77729729
Al		0.275893222		-2.327948758		-1.827930276
Al		2.031806753		-0.541677242		-0.801176898
Al		-0.332651078		0.309748009		-1.807528393
F		3.6215557		-0.180920871		-0.023874301
F		-0.166383745		-4.032043836		-2.230540021
F		2.094423349		-1.802067799		-2.292583551
F		1.529747569		0.654370772		-2.264933955
F		-1.480123031		1.653086731		-2.182221247
F		-1.131344141		-1.272171122		-0.987105262
F		-0.13046063		-1.019632263		-3.222276225
F		0.503782314		0.399438312		-0.041614847
F		1.083949345		-2.079693802		-0.064757322
