12
-185.77729729
Al		0.275975472		-2.327928017		-1.828108531
Al		2.031153184		-0.541842078		-0.799760476
Al		-0.332079759		0.309892097		-1.80876656
F		3.62075147		-0.181123703		-0.022131364
F		-0.166282532		-4.032018307		-2.230759366
F		2.09293251		-1.799871724		-2.293633768
F		1.529806747		0.653954482		-2.265044044
F		-1.479420007		1.653264034		-2.183744839
F		-1.128803967		-1.271543215		-0.985153277
F		-0.13353265		-1.020394304		-3.22307559
F		0.503790063		0.399871479		-0.041649812
F		1.085905103		-2.08177262		-0.064714678
