12
-185.77729729
Al		0.275987222		-2.327925054		-1.828133996
Al		2.031059817		-0.541865626		-0.79955813
Al		-0.331998142		0.309912681		-1.808943441
F		3.62063658		-0.181152679		-0.021882373
F		-0.166268073		-4.03201466		-2.230790701
F		2.092719533		-1.799557999		-2.293783799
F		1.529815201		0.653895012		-2.265059771
F		-1.479319575		1.653289363		-2.183962495
F		-1.128441085		-1.271453514		-0.984874422
F		-0.13397151		-1.020503167		-3.223189785
F		0.50379117		0.39993336		-0.041654807
F		1.086184497		-2.082069594		-0.064708586
