12
-185.77729729
Al		0.275575972		-2.328028759		-1.827242721
Al		2.034327662		-0.541041446		-0.80664024
Al		-0.334854737		0.309192241		-1.802752606
F		3.62465773		-0.180138519		-0.030597058
F		-0.166774138		-4.032142305		-2.229693976
F		2.100173728		-1.810538374		-2.288532714
F		1.529519311		0.655976462		-2.264509326
F		-1.482834695		1.652402848		-2.176344535
F		-1.141141955		-1.274593049		-0.994634347
F		-0.11861141		-1.016692962		-3.21919296
F		0.503752425		0.397767525		-0.041479982
F		1.076405707		-2.071675504		-0.064921806
