12
-185.77729729
Al		0.276045972		-2.327910239		-1.828261321
Al		2.030592982		-0.541983366		-0.7985464
Al		-0.331590057		0.310015601		-1.809827846
F		3.62006213		-0.181297559		-0.020637418
F		-0.166195778		-4.031996425		-2.230947376
F		2.091654648		-1.797989374		-2.294533954
F		1.529857471		0.653597662		-2.265138406
F		-1.478817415		1.653416008		-2.185050775
F		-1.126626675		-1.271005009		-0.983480147
F		-0.13616581		-1.021047482		-3.22376076
F		0.503796705		0.400242765		-0.041679782
F		1.087581467		-2.083554464		-0.064678126
