12
-185.77729729
Al		0.276069472		-2.327904313		-1.828312251
Al		2.030406248		-0.542030462		-0.798141708
Al		-0.331426823		0.310056769		-1.810181608
F		3.61983235		-0.181355511		-0.020139436
F		-0.16616686		-4.031989131		-2.231010046
F		2.091228694		-1.797361924		-2.294834016
F		1.529874379		0.653478722		-2.26516986
F		-1.478616551		1.653466666		-2.185486087
F		-1.125900911		-1.270825607		-0.982922437
F		-0.13704353		-1.021265208		-3.22398915
F		0.503798919		0.400366527		-0.041689772
F		1.088140255		-2.084148412		-0.064665942
