12
-185.77729729
Al		0.276081222		-2.32790135		-1.828337716
Al		2.030312881		-0.54205401		-0.797939362
Al		-0.331345206		0.310077353		-1.810358489
F		3.61971746		-0.181384487		-0.019890445
F		-0.166152401		-4.031985484		-2.231041381
F		2.091015717		-1.797048199		-2.294984047
F		1.529882833		0.653419252		-2.265185587
F		-1.478516119		1.653491995		-2.185703743
F		-1.125538029		-1.270735906		-0.982643582
F		-0.13748239		-1.021374071		-3.224103345
F		0.503800026		0.400428408		-0.041694767
F		1.088419649		-2.084445386		-0.06465985
