12
-185.77729729
Al		0.276128222		-2.327889498		-1.828439576
Al		2.029939413		-0.542148202		-0.797129978
Al		-0.331018738		0.310159689		-1.811066013
F		3.6192579		-0.181500391		-0.018894481
F		-0.166094565		-4.031970896		-2.231166721
F		2.090163809		-1.795793299		-2.295584171
F		1.529916649		0.653181372		-2.265248495
F		-1.478114391		1.653593311		-2.186574367
F		-1.124086501		-1.270377102		-0.981528162
F		-0.13923783		-1.021809523		-3.224560125
F		0.503804454		0.400675932		-0.041714747
F		1.089537225		-2.085633282		-0.064635482
