12
-185.77729729
Al		0.276198722		-2.32787172		-1.828592366
Al		2.029379211		-0.54228949		-0.795915902
Al		-0.330529036		0.310283193		-1.812127299
F		3.61856856		-0.181674247		-0.017400535
F		-0.166007811		-4.031949014		-2.231354731
F		2.088885947		-1.793910949		-2.296484357
F		1.529967373		0.652824552		-2.265342857
F		-1.477511799		1.653745285		-2.187880303
F		-1.121909209		-1.269838896		-0.979855032
F		-0.14187099		-1.022462701		-3.225245295
F		0.503811096		0.401047218		-0.041744717
F		1.091213589		-2.087415126		-0.06459893
