12
-185.77729729
Al		0.276316222		-2.32784209		-1.828847016
Al		2.028445541		-0.54252497		-0.793892442
Al		-0.329712866		0.310489033		-1.813896109
F		3.61741966		-0.181964007		-0.014910625
F		-0.165863221		-4.031912544		-2.231668081
F		2.086756177		-1.790773699		-2.297984667
F		1.530051913		0.652229852		-2.265500127
F		-1.476507479		1.653998575		-2.190056863
F		-1.118280389		-1.268941886		-0.977066482
F		-0.14625959		-1.023551331		-3.226387245
F		0.503822166		0.401666028		-0.041794667
F		1.094007529		-2.090384866		-0.06453801
