12
-185.77729729
Al		0.275611222		-2.32801987		-1.827319116
Al		2.034047561		-0.54111209		-0.806033202
Al		-0.334609886		0.309253993		-1.803283249
F		3.62431306		-0.180225447		-0.029850085
F		-0.166730761		-4.032131364		-2.229787981
F		2.099534797		-1.809597199		-2.288982807
F		1.529544673		0.655798052		-2.264556507
F		-1.482533399		1.652478835		-2.176997503
F		-1.140053309		-1.274323946		-0.993797782
F		-0.11992799		-1.017019551		-3.219535545
F		0.503755746		0.397953168		-0.041494967
F		1.077243889		-2.072566426		-0.06490353
