12
-185.77729729
Al		0.276374972		-2.327827275		-1.828974341
Al		2.027978706		-0.54264271		-0.792880712
Al		-0.329304781		0.310591953		-1.814780514
F		3.61684521		-0.182108887		-0.01366567
F		-0.165790926		-4.031894309		-2.231824756
F		2.085691292		-1.789205074		-2.298734822
F		1.530094183		0.651932502		-2.265578762
F		-1.476005319		1.65412522		-2.191145143
F		-1.116465979		-1.268493381		-0.975672207
F		-0.14845389		-1.024095646		-3.22695822
F		0.503827701		0.401975433		-0.041819642
F		1.095404499		-2.091869736		-0.06450755
