12
-185.77729729
Al		0.276386722		-2.327824312		-1.828999806
Al		2.027885339		-0.542666258		-0.792678366
Al		-0.329223164		0.310612537		-1.814957395
F		3.61673032		-0.182137863		-0.013416679
F		-0.165776467		-4.031890662		-2.231856091
F		2.085478315		-1.788891349		-2.298884853
F		1.530102637		0.651873032		-2.265594489
F		-1.475904887		1.654150549		-2.191362799
F		-1.116103097		-1.26840368		-0.975393352
F		-0.14889275		-1.024204509		-3.227072415
F		0.503828808		0.402037314		-0.041824637
F		1.095683893		-2.09216671		-0.064501458
