12
-185.77729729
Al		0.276421972		-2.327815423		-1.829076201
Al		2.027605238		-0.542736902		-0.792071328
Al		-0.328978313		0.310674289		-1.815488038
F		3.61638565		-0.182224791		-0.012669706
F		-0.16573309		-4.031879721		-2.231950096
F		2.084839384		-1.787950174		-2.299334946
F		1.530127999		0.651694622		-2.26564167
F		-1.475603591		1.654226536		-2.192015767
F		-1.115014451		-1.268134577		-0.974556787
F		-0.15020933		-1.024531098		-3.227415
F		0.503832129		0.402222957		-0.041839622
F		1.096522075		-2.093057632		-0.064483182
