12
-185.77729729
Al		0.276433722		-2.32781246		-1.829101666
Al		2.027511871		-0.54276045		-0.791868982
Al		-0.328896696		0.310694873		-1.815664919
F		3.61627076		-0.182253767		-0.012420715
F		-0.165718631		-4.031876074		-2.231981431
F		2.084626407		-1.787636449		-2.299484977
F		1.530136453		0.651635152		-2.265657397
F		-1.475503159		1.654251865		-2.192233423
F		-1.114651569		-1.268044876		-0.974277932
F		-0.15064819		-1.024639961		-3.227529195
F		0.503833236		0.402284838		-0.041844617
F		1.096801469		-2.093354606		-0.06447709
