12
-185.77729729
Al		0.276457222		-2.327806534		-1.829152596
Al		2.027325137		-0.542807546		-0.79146429
Al		-0.328733462		0.310736041		-1.816018681
F		3.61604098		-0.182311719		-0.011922733
F		-0.165689713		-4.03186878		-2.232044101
F		2.084200453		-1.787008999		-2.299785039
F		1.530153361		0.651516212		-2.265688851
F		-1.475302295		1.654302523		-2.192668735
F		-1.113925805		-1.267865474		-0.973720222
F		-0.15152591		-1.024857687		-3.227757585
F		0.50383545		0.4024086		-0.041854607
F		1.097360257		-2.093948554		-0.064464906
