12
-185.77729729
Al		0.276492472		-2.327797645		-1.829228991
Al		2.027045036		-0.54287819		-0.790857252
Al		-0.328488611		0.310797793		-1.816549324
F		3.61569631		-0.182398647		-0.01117576
F		-0.165646336		-4.031857839		-2.232138106
F		2.083561522		-1.786067824		-2.300235132
F		1.530178723		0.651337802		-2.265736032
F		-1.475000999		1.65437851		-2.193321703
F		-1.112837159		-1.267596371		-0.972883657
F		-0.15284249		-1.025184276		-3.22810017
F		0.503838771		0.402594243		-0.041869592
F		1.098198439		-2.094839476		-0.06444663
