12
-185.77729729
Al		0.276515972		-2.327791719		-1.829279921
Al		2.026858302		-0.542925286		-0.79045256
Al		-0.328325377		0.310838961		-1.816903086
F		3.61546653		-0.182456599		-0.010677778
F		-0.165617418		-4.031850545		-2.232200776
F		2.083135568		-1.785440374		-2.300535194
F		1.530195631		0.651218862		-2.265767486
F		-1.474800135		1.654429168		-2.193757015
F		-1.112111395		-1.267416969		-0.972325947
F		-0.15372021		-1.025402002		-3.22832856
F		0.503840985		0.402718005		-0.041879582
F		1.098757227		-2.095433424		-0.064434446
