12
-185.77729729
Al		0.276527722		-2.327788756		-1.829305386
Al		2.026764935		-0.542948834		-0.790250214
Al		-0.32824376		0.310859545		-1.817079967
F		3.61535164		-0.182485575		-0.010428787
F		-0.165602959		-4.031846898		-2.232232111
F		2.082922591		-1.785126649		-2.300685225
F		1.530204085		0.651159392		-2.265783213
F		-1.474699703		1.654454497		-2.193974671
F		-1.111748513		-1.267327268		-0.972047092
F		-0.15415907		-1.025510865		-3.228442755
F		0.503842092		0.402779886		-0.041884577
F		1.099036621		-2.095730398		-0.064428354
