12
-185.77729729
Al		0.276562972		-2.327779867		-1.829381781
Al		2.026484834		-0.543019478		-0.789643176
Al		-0.327998909		0.310921297		-1.81761061
F		3.61500697		-0.182572503		-0.009681814
F		-0.165559582		-4.031835957		-2.232326116
F		2.08228366		-1.784185474		-2.301135318
F		1.530229447		0.650980982		-2.265830394
F		-1.474398407		1.654530484		-2.194627639
F		-1.110659867		-1.267058165		-0.971210527
F		-0.15547565		-1.025837454		-3.22878534
F		0.503845413		0.402965529		-0.041899562
F		1.099874803		-2.09662132		-0.064410078
