12
-185.77729729
Al		0.276574722		-2.327776904		-1.829407246
Al		2.026391467		-0.543043026		-0.78944083
Al		-0.327917292		0.310941881		-1.817787491
F		3.61489208		-0.182601479		-0.009432823
F		-0.165545123		-4.03183231		-2.232357451
F		2.082070683		-1.783871749		-2.301285349
F		1.530237901		0.650921512		-2.265846121
F		-1.474297975		1.654555813		-2.194845295
F		-1.110296985		-1.266968464		-0.970931672
F		-0.15591451		-1.025946317		-3.228899535
F		0.50384652		0.40302741		-0.041904557
F		1.100154197		-2.096918294		-0.064403986
