12
-185.77729729
Al		0.276645222		-2.327759126		-1.829560036
Al		2.025831265		-0.543184314		-0.788226754
Al		-0.32742759		0.311065385		-1.818848777
F		3.61420274		-0.182775335		-0.007938877
F		-0.165458369		-4.031810428		-2.232545461
F		2.080792821		-1.781989399		-2.302185535
F		1.530288625		0.650564692		-2.265940483
F		-1.473695383		1.654707787		-2.196151231
F		-1.108119693		-1.266430258		-0.969258542
F		-0.15854767		-1.026599495		-3.229584705
F		0.503853162		0.403398696		-0.041934527
F		1.101830561		-2.098700138		-0.064367434
