12
-185.77729729
Al		0.276656972		-2.327756163		-1.829585501
Al		2.025737898		-0.543207862		-0.788024408
Al		-0.327345973		0.311085969		-1.819025658
F		3.61408785		-0.182804311		-0.007689886
F		-0.16544391		-4.031806781		-2.232576796
F		2.080579844		-1.781675674		-2.302335566
F		1.530297079		0.650505222		-2.26595621
F		-1.473594951		1.654733116		-2.196368887
F		-1.107756811		-1.266340557		-0.968979687
F		-0.15898653		-1.026708358		-3.2296989
F		0.503854269		0.403460577		-0.041939522
F		1.102109955		-2.098997112		-0.064361342
