12
-185.77729729
Al		0.275399722		-2.328073204		-1.826860746
Al		2.035728167		-0.540688226		-0.80967543
Al		-0.336078992		0.308883481		-1.800099391
F		3.62638108		-0.179703879		-0.034331923
F		-0.166991023		-4.03219701		-2.229223951
F		2.103368383		-1.815244249		-2.286282249
F		1.529392501		0.656868512		-2.264273421
F		-1.484341175		1.652022913		-2.173079695
F		-1.146585185		-1.275938564		-0.998817172
F		-0.11202851		-1.015060017		-3.217480035
F		0.50373582		0.39683931		-0.041405057
F		1.072214797		-2.067220894		-0.065013186
