12
-185.77729729
Al		0.275352722		-2.328085056		-1.826758886
Al		2.036101635		-0.540594034		-0.810484814
Al		-0.33640546		0.308801145		-1.799391867
F		3.62684064		-0.179587975		-0.035327887
F		-0.167048859		-4.032211598		-2.229098611
F		2.104220291		-1.816499149		-2.285682125
F		1.529358685		0.657106392		-2.264210513
F		-1.484742903		1.651921597		-2.172209071
F		-1.148036713		-1.276297368		-0.999932592
F		-0.11027307		-1.014624565		-3.217023255
F		0.503731392		0.396591786		-0.041385077
F		1.071097221		-2.066032998		-0.065037554
