12
-185.77729729
Al		0.275329222		-2.328090982		-1.826707956
Al		2.036288369		-0.540546938		-0.810889506
Al		-0.336568694		0.308759977		-1.799038105
F		3.62707042		-0.179530023		-0.035825869
F		-0.167077777		-4.032218892		-2.229035941
F		2.104646245		-1.817126599		-2.285382063
F		1.529341777		0.657225332		-2.264179059
F		-1.484943767		1.651870939		-2.171773759
F		-1.148762477		-1.27647677		-1.000490302
F		-0.10939535		-1.014406839		-3.216794865
F		0.503729178		0.396468024		-0.041375087
F		1.070538433		-2.06543905		-0.065049738
