12
-185.77729729
Al		0.275505472		-2.328046537		-1.827089931
Al		2.034887864		-0.540900158		-0.807854316
Al		-0.335344439		0.309068737		-1.80169132
F		3.62534707		-0.179964663		-0.032091004
F		-0.166860892		-4.032164187		-2.229505966
F		2.10145159		-1.812420724		-2.287632528
F		1.529468587		0.656333282		-2.264414964
F		-1.483437287		1.652250874		-2.175038599
F		-1.143319247		-1.275131255		-0.996307477
F		-0.11597825		-1.016039784		-3.21850779
F		0.503745783		0.397396239		-0.041450012
F		1.074729343		-2.06989366		-0.064958358
