12
-185.77729729
Al		0.275293972		-2.328099871		-1.826631561
Al		2.03656847		-0.540476294		-0.811496544
Al		-0.336813545		0.308698225		-1.798507462
F		3.62741509		-0.179443095		-0.036572842
F		-0.167121154		-4.032229833		-2.228941936
F		2.105285176		-1.818067774		-2.28493197
F		1.529316415		0.657403742		-2.264131878
F		-1.485245063		1.651794952		-2.171120791
F		-1.149851123		-1.276745873		-1.001326867
F		-0.10807877		-1.01408025		-3.21645228
F		0.503725857		0.396282381		-0.041360102
F		1.069700251		-2.064548128		-0.065068014
