12
-185.77729729
Al		0.275235222		-2.328114686		-1.826504236
Al		2.037035305		-0.540358554		-0.812508274
Al		-0.33722163		0.308595305		-1.797623057
F		3.62798954		-0.179298215		-0.037817797
F		-0.167193449		-4.032248068		-2.228785261
F		2.106350061		-1.819636399		-2.284181815
F		1.529274145		0.657701092		-2.264053243
F		-1.485747223		1.651668307		-2.170032511
F		-1.151665533		-1.277194378		-1.002721142
F		-0.10588447		-1.013535935		-3.215881305
F		0.503720322		0.395972976		-0.041335127
F		1.068303281		-2.063063258		-0.065098474
