12
-185.77729729
Al		0.275211722		-2.328120612		-1.826453306
Al		2.037222039		-0.540311458		-0.812912966
Al		-0.337384864		0.308554137		-1.797269295
F		3.62821932		-0.179240263		-0.038315779
F		-0.167222367		-4.032255362		-2.228722591
F		2.106776015		-1.820263849		-2.283881753
F		1.529257237		0.657820032		-2.264021789
F		-1.485948087		1.651617649		-2.169597199
F		-1.152391297		-1.27737378		-1.003278852
F		-0.10500675		-1.013318209		-3.215652915
F		0.503718108		0.395849214		-0.041325137
F		1.067744493		-2.06246931		-0.065110658
