12
-185.77729729
Al		0.275141222		-2.32813839		-1.826300516
Al		2.037782241		-0.54017017		-0.814127042
Al		-0.337874566		0.308430633		-1.796208009
F		3.62890866		-0.179066407		-0.039809725
F		-0.167309121		-4.032277244		-2.228534581
F		2.108053877		-1.822146199		-2.282981567
F		1.529206513		0.658176852		-2.263927427
F		-1.486550679		1.651465675		-2.168291263
F		-1.154568589		-1.277911986		-1.004951982
F		-0.10237359		-1.012665031		-3.214967745
F		0.503711466		0.395477928		-0.041295167
F		1.066068129		-2.060687466		-0.06514721
