12
-185.77729729
Al		0.275117722		-2.328144316		-1.826249586
Al		2.037968975		-0.540123074		-0.814531734
Al		-0.3380378		0.308389465		-1.795854247
F		3.62913844		-0.179008455		-0.040307707
F		-0.167338039		-4.032284538		-2.228471911
F		2.108479831		-1.822773649		-2.282681505
F		1.529189605		0.658295792		-2.263895973
F		-1.486751543		1.651415017		-2.167855951
F		-1.155294353		-1.278091388		-1.005509692
F		-0.10149587		-1.012447305		-3.214739355
F		0.503709252		0.395354166		-0.041285177
F		1.065509341		-2.060093518		-0.065159394
