12
-185.77729729
Al		0.275082472		-2.328153205		-1.826173191
Al		2.038249076		-0.54005243		-0.815138772
Al		-0.338282651		0.308327713		-1.795323604
F		3.62948311		-0.178921527		-0.04105468
F		-0.167381416		-4.032295479		-2.228377906
F		2.109118762		-1.823714824		-2.282231412
F		1.529164243		0.658474202		-2.263848792
F		-1.487052839		1.65133903		-2.167202983
F		-1.156382999		-1.278360491		-1.006346257
F		-0.10017929		-1.012120716		-3.21439677
F		0.503705931		0.395168523		-0.041270192
F		1.064671159		-2.059202596		-0.06517767
