12
-185.77729729
Al		0.275011972		-2.328170983		-1.826020401
Al		2.038809278		-0.539911142		-0.816352848
Al		-0.338772353		0.308204209		-1.794262318
F		3.63017245		-0.178747671		-0.042548626
F		-0.16746817		-4.032317361		-2.228189896
F		2.110396624		-1.825597174		-2.281331226
F		1.529113519		0.658831022		-2.26375443
F		-1.487655431		1.651187056		-2.165897047
F		-1.158560291		-1.278898697		-1.008019387
F		-0.09754613		-1.011467538		-3.2137116
F		0.503699289		0.394797237		-0.041240222
F		1.062994795		-2.057420752		-0.065214222
