12
-185.77729729
Al		0.275000222		-2.328173946		-1.825994936
Al		2.038902645		-0.539887594		-0.816555194
Al		-0.33885397		0.308183625		-1.794085437
F		3.63028734		-0.178718695		-0.042797617
F		-0.167482629		-4.032321008		-2.228158561
F		2.110609601		-1.825910899		-2.281181195
F		1.529105065		0.658890492		-2.263738703
F		-1.487755863		1.651161727		-2.165679391
F		-1.158923173		-1.278988398		-1.008298242
F		-0.09710727		-1.011358675		-3.213597405
F		0.503698182		0.394735356		-0.041235227
F		1.062715401		-2.057123778		-0.065220314
