12
-185.77729729
Al		0.274953222		-2.328185798		-1.825893076
Al		2.039276113		-0.539793402		-0.817364578
Al		-0.339180438		0.308101289		-1.793377913
F		3.6307469		-0.178602791		-0.043793581
F		-0.167540465		-4.032335596		-2.228033221
F		2.111461509		-1.827165799		-2.280581071
F		1.529071249		0.659128372		-2.263675795
F		-1.488157591		1.651060411		-2.164808767
F		-1.160374701		-1.279347202		-1.009413662
F		-0.09535183		-1.010923223		-3.213140625
F		0.503693754		0.394487832		-0.041215247
F		1.061597825		-2.055935882		-0.065244682
