12
-185.77729729
Al		0.274859222		-2.328209502		-1.825689356
Al		2.040023049		-0.539605018		-0.818983346
Al		-0.339833374		0.307936617		-1.791962865
F		3.63166602		-0.178370983		-0.045785509
F		-0.167656137		-4.032364772		-2.227782541
F		2.113165325		-1.829675599		-2.279380823
F		1.529003617		0.659604132		-2.263549979
F		-1.488961047		1.650857779		-2.163067519
F		-1.163277757		-1.28006481		-1.011644502
F		-0.09184095		-1.010052319		-3.212227065
F		0.503684898		0.393992784		-0.041175287
F		1.059362673		-2.05356009		-0.065293418
