12
-185.77729729
Al		0.275458472		-2.328058389		-1.826988071
Al		2.035261332		-0.540805966		-0.8086637
Al		-0.335670907		0.308986401		-1.800983796
F		3.62580663		-0.179848759		-0.033086968
F		-0.166918728		-4.032178775		-2.229380626
F		2.102303498		-1.813675624		-2.287032404
F		1.529434771		0.656571162		-2.264352056
F		-1.483839015		1.652149558		-2.174167975
F		-1.144770775		-1.275490059		-0.997422897
F		-0.11422281		-1.015604332		-3.21805101
F		0.503741355		0.397148715		-0.041430032
F		1.073611767		-2.068705764		-0.064982726
