12
-185.77729729
Al		0.274800472		-2.328224317		-1.825562031
Al		2.040489884		-0.539487278		-0.819995076
Al		-0.340241459		0.307833697		-1.79107846
F		3.63224047		-0.178226103		-0.047030464
F		-0.167728432		-4.032383007		-2.227625866
F		2.11423021		-1.831244224		-2.278630668
F		1.528961347		0.659901482		-2.263471344
F		-1.489463207		1.650731134		-2.161979239
F		-1.165092167		-1.280513315		-1.013038777
F		-0.08964665		-1.009508004		-3.21165609
F		0.503679363		0.393683379		-0.041150312
F		1.057965703		-2.05207522		-0.065323878
