12
-185.77729729
Al		0.274718222		-2.328245058		-1.825383776
Al		2.041143453		-0.539322442		-0.821411498
Al		-0.340812778		0.307689609		-1.789840293
F		3.6330447		-0.178023271		-0.048773401
F		-0.167829645		-4.032408536		-2.227406521
F		2.115721049		-1.833440299		-2.277580451
F		1.528902169		0.660317772		-2.263361255
F		-1.490166231		1.650553831		-2.160455647
F		-1.167632341		-1.281141222		-1.014990762
F		-0.08657463		-1.008745963		-3.210856725
F		0.503671614		0.393250212		-0.041115347
F		1.056009945		-2.049996402		-0.065366522
