12
-185.77729729
Al		0.275446722		-2.328061352		-1.826962606
Al		2.035354699		-0.540782418		-0.808866046
Al		-0.335752524		0.308965817		-1.800806915
F		3.62592152		-0.179819783		-0.033335959
F		-0.166933187		-4.032182422		-2.229349291
F		2.102516475		-1.813989349		-2.286882373
F		1.529426317		0.656630632		-2.264336329
F		-1.483939447		1.652124229		-2.173950319
F		-1.145133657		-1.27557976		-0.997701752
F		-0.11378395		-1.015495469		-3.217936815
F		0.503740248		0.397086834		-0.041425037
F		1.073332373		-2.06840879		-0.064988818
