12
-185.77729729
Al		0.274694722		-2.328250984		-1.825332846
Al		2.041330187		-0.539275346		-0.82181619
Al		-0.340976012		0.307648441		-1.789486531
F		3.63327448		-0.177965319		-0.049271383
F		-0.167858563		-4.03241583		-2.227343851
F		2.116147003		-1.834067749		-2.277280389
F		1.528885261		0.660436712		-2.263329801
F		-1.490367095		1.650503173		-2.160020335
F		-1.168358105		-1.281320624		-1.015548472
F		-0.08569691		-1.008528237		-3.210628335
F		0.5036694		0.39312645		-0.041105357
F		1.055451157		-2.049402454		-0.065378706
