12
-185.77729729
Al		0.274682972		-2.328253947		-1.825307381
Al		2.041423554		-0.539251798		-0.822018536
Al		-0.341057629		0.307627857		-1.78930965
F		3.63338937		-0.177936343		-0.049520374
F		-0.167873022		-4.032419477		-2.227312516
F		2.11635998		-1.834381474		-2.277130358
F		1.528876807		0.660496182		-2.263314074
F		-1.490467527		1.650477844		-2.159802679
F		-1.168720987		-1.281410325		-1.015827327
F		-0.08525805		-1.008419374		-3.21051414
F		0.503668293		0.393064569		-0.041100362
F		1.055171763		-2.04910548		-0.065384798
