12
-185.77729729
Al		0.274624222		-2.328268762		-1.825180056
Al		2.041890389		-0.539134058		-0.823030266
Al		-0.341465714		0.307524937		-1.788425245
F		3.63396382		-0.177791463		-0.050765329
F		-0.167945317		-4.032437712		-2.227155841
F		2.117424865		-1.835950099		-2.276380203
F		1.528834537		0.660793532		-2.263235439
F		-1.490969687		1.650351199		-2.158714399
F		-1.170535397		-1.28185883		-1.017221602
F		-0.08306375		-1.007875059		-3.209943165
F		0.503662758		0.392755164		-0.041075387
F		1.053774793		-2.04762061		-0.065415258
