12
-185.77729729
Al		0.275434972		-2.328064315		-1.826937141
Al		2.035448066		-0.54075887		-0.809068392
Al		-0.335834141		0.308945233		-1.800630034
F		3.62603641		-0.179790807		-0.03358495
F		-0.166947646		-4.032186069		-2.229317956
F		2.102729452		-1.814303074		-2.286732342
F		1.529417863		0.656690102		-2.264320602
F		-1.484039879		1.6520989		-2.173732663
F		-1.145496539		-1.275669461		-0.997980607
F		-0.11334509		-1.015386606		-3.21782262
F		0.503739141		0.397024953		-0.041420042
F		1.073052979		-2.068111816		-0.06499491
