12
-185.77729729
Al		0.274553722		-2.32828654		-1.825027266
Al		2.042450591		-0.53899277		-0.824244342
Al		-0.341955416		0.307401433		-1.787363959
F		3.63465316		-0.177617607		-0.052259275
F		-0.168032071		-4.032459594		-2.226967831
F		2.118702727		-1.837832449		-2.275480017
F		1.528783813		0.661150352		-2.263141077
F		-1.491572279		1.650199225		-2.157408463
F		-1.172712689		-1.282397036		-1.018894732
F		-0.08043059		-1.007221881		-3.209257995
F		0.503656116		0.392383878		-0.041045417
F		1.052098429		-2.045838766		-0.06545181
