12
-185.77729729
Al		0.274541972		-2.328289503		-1.825001801
Al		2.042543958		-0.538969222		-0.824446688
Al		-0.342037033		0.307380849		-1.787187078
F		3.63476805		-0.177588631		-0.052508266
F		-0.16804653		-4.032463241		-2.226936496
F		2.118915704		-1.838146174		-2.275329986
F		1.528775359		0.661209822		-2.26312535
F		-1.491672711		1.650173896		-2.157190807
F		-1.173075571		-1.282486737		-1.019173587
F		-0.07999173		-1.007113018		-3.2091438
F		0.503655009		0.392321997		-0.041040422
F		1.051819035		-2.045541792		-0.065457902
