12
-185.77729729
Al		0.274483222		-2.328304318		-1.824874476
Al		2.043010793		-0.538851482		-0.825458418
Al		-0.342445118		0.307277929		-1.786302673
F		3.6353425		-0.177443751		-0.053753221
F		-0.168118825		-4.032481476		-2.226779821
F		2.119980589		-1.839714799		-2.274579831
F		1.528733089		0.661507172		-2.263046715
F		-1.492174871		1.650047251		-2.156102527
F		-1.174889981		-1.282935242		-1.020567862
F		-0.07779743		-1.006568703		-3.208572825
F		0.503649474		0.392012592		-0.041015447
F		1.050422065		-2.044056922		-0.065488362
