12
-185.77729729
Al		0.274436222		-2.32831617		-1.824772616
Al		2.043384261		-0.53875729		-0.826267802
Al		-0.342771586		0.307195593		-1.785595149
F		3.63580206		-0.177327847		-0.054749185
F		-0.168176661		-4.032496064		-2.226654481
F		2.120832497		-1.840969699		-2.273979707
F		1.528699273		0.661745052		-2.262983807
F		-1.492576599		1.649945935		-2.155231903
F		-1.176341509		-1.283294046		-1.021683282
F		-0.07604199		-1.006133251		-3.208116045
F		0.503645046		0.391765068		-0.040995467
F		1.049304489		-2.042869026		-0.06551273
