12
-185.77729729
Al		0.274389222		-2.328328022		-1.824670756
Al		2.043757729		-0.538663098		-0.827077186
Al		-0.343098054		0.307113257		-1.784887625
F		3.63626162		-0.177211943		-0.055745149
F		-0.168234497		-4.032510652		-2.226529141
F		2.121684405		-1.842224599		-2.273379583
F		1.528665457		0.661982932		-2.262920899
F		-1.492978327		1.649844619		-2.154361279
F		-1.177793037		-1.28365285		-1.022798702
F		-0.07428655		-1.005697799		-3.207659265
F		0.503640618		0.391517544		-0.040975487
F		1.048186913		-2.04168113		-0.065537098
