12
-187.24475565
Al		0.368013293		-0.715763458		1.624471839
Al		2.408592665		-1.814934472		-0.557561897
Al		-0.937011981		-1.857901158		-1.044955343
F		3.448790007		-0.525487493		-1.09823248
F		-1.811838554		-0.593048188		-1.864610397
F		2.724119795		-3.510504094		-0.491342043
F		-1.215575366		-3.561100702		-1.06528402
F		1.831235697		-1.375736993		1.273043502
F		0.833145164		-1.504170482		-1.498819065
F		0.094347952		-1.202158463		3.545865589
F		0.408993671		1.237180899		1.171008536
F		-0.917082668		-1.411032883		0.872663614
