12
-187.24475565
Al		0.300597593		-0.288786358		2.049592139
Al		2.195598565		-1.718902272		-0.417831097
Al		-0.775212981		-1.757055358		-0.850624943
F		3.549141907		-0.418579593		-1.15157038
F		-1.895461654		-0.488503088		-1.944749797
F		2.770750995		-3.700575294		-0.493258243
F		-1.254926766		-3.752275202		-1.07972592
F		2.071344797		-1.519625793		1.044895802
F		0.828250164		-1.520019282		-1.463819265
F		0.147748552		-1.092903163		3.169675489
F		0.399063971		0.863090699		1.272144736
F		-1.078435068		-1.560077383		0.586030014
