12
-187.24475565
Al		0.374141993		-0.754579558		1.585824539
Al		2.427955765		-1.823664672		-0.570264697
Al		-0.951720981		-1.867068958		-1.062621743
F		3.439667107		-0.535206393		-1.09338358
F		-1.804236454		-0.602552288		-1.857324997
F		2.719880595		-3.493224894		-0.491167843
F		-1.211997966		-3.543721202		-1.06397112
F		1.809407597		-1.362656193		1.293784202
F		0.833590164		-1.502729682		-1.502000865
F		0.089493352		-1.212090763		3.580064689
F		0.409896371		1.271189099		1.161814336
F		-0.902414268		-1.397483383		0.898721214
