12
-187.24475565
Al		0.398656793		-0.909843958		1.431235339
Al		2.505408165		-1.858585472		-0.621075897
Al		-1.010556981		-1.903740158		-1.133287343
F		3.403175507		-0.574081993		-1.07398798
F		-1.773828054		-0.640568688		-1.828183397
F		2.702923795		-3.424108094		-0.490471043
F		-1.197688366		-3.474203202		-1.05871952
F		1.722095197		-1.310332993		1.376747002
F		0.835370164		-1.496966482		-1.514728065
F		0.070074952		-1.251819963		3.716861089
F		0.413507171		1.407221899		1.125037536
F		-0.843740668		-1.343285383		1.002951614
