12
-187.24475565
Al		0.398656795		-0.909843878		1.431235317
Al		2.505408163		-1.858585454		-0.62107589
Al		-1.010556982		-1.90374014		-1.133287336
F		3.403175511		-0.574081993		-1.073988003
F		-1.773828051		-0.640568689		-1.828183421
F		2.702923787		-3.424108077		-0.490470992
F		-1.197688373		-3.474203185		-1.058719469
F		1.722095196		-1.310332932		1.376747
F		0.835370164		-1.496966482		-1.514728065
F		0.070074951		-1.251819841		3.716861081
F		0.413507179		1.407221966		1.125037472
F		-0.843740669		-1.343285321		1.002951612
