12
-187.24475565
Al		0.325112395		-0.444050678		1.895002917
Al		2.273050963		-1.753823054		-0.46864229
Al		-0.834048982		-1.79372654		-0.921290536
F		3.512650311		-0.457455193		-1.132174803
F		-1.865053251		-0.526519489		-1.915608221
F		2.753794187		-3.631458477		-0.492561392
F		-1.240617173		-3.682757185		-1.074474269
F		1.984032396		-1.467302532		1.1278586
F		0.830030164		-1.514256082		-1.476546465
F		0.128330151		-1.132632241		3.306471881
F		0.402674779		0.999123566		1.235367872
F		-1.019761469		-1.505879321		0.690260412
