12
-187.24475565
Al		0.410914193		-0.987476158		1.353940739
Al		2.544134365		-1.876045872		-0.646481497
Al		-1.039974981		-1.922075758		-1.168620143
F		3.384929707		-0.593519793		-1.06429018
F		-1.758623854		-0.659576888		-1.813612597
F		2.694445395		-3.389549694		-0.490122643
F		-1.190533566		-3.439444202		-1.05609372
F		1.678438997		-1.284171393		1.418228402
F		0.836260164		-1.494084882		-1.521091665
F		0.060365752		-1.271684563		3.785259289
F		0.415312571		1.475238299		1.106649136
F		-0.814403868		-1.316186383		1.055066814
