12
-187.24475565
Al		0.355755893		-0.638131258		1.701766439
Al		2.369866465		-1.797474072		-0.532156297
Al		-0.907593981		-1.839565558		-1.009622543
F		3.467035807		-0.506049693		-1.10793028
F		-1.827042754		-0.574039988		-1.879181197
F		2.732598195		-3.545062494		-0.491690443
F		-1.222730166		-3.595859702		-1.06790982
F		1.874891897		-1.401898593		1.231562102
F		0.832255164		-1.507052082		-1.492455465
F		0.104057152		-1.182293863		3.477467389
F		0.407188271		1.169164499		1.189396936
F		-0.946419468		-1.438131883		0.820548414
