12
-187.24475565
Al		0.361884593		-0.676947358		1.663119139
Al		2.389229565		-1.806204272		-0.544859097
Al		-0.922302981		-1.848733358		-1.027288943
F		3.457912907		-0.515768593		-1.10308138
F		-1.819440654		-0.583544088		-1.871895797
F		2.728358995		-3.527783294		-0.491516243
F		-1.219152766		-3.578480202		-1.06659692
F		1.853063797		-1.388817793		1.252302802
F		0.832700164		-1.505611282		-1.495637265
F		0.099202552		-1.192226163		3.511666489
F		0.408090971		1.203172699		1.180202736
F		-0.931751068		-1.424582383		0.846606014
