12
-187.24475565
Al		0.331241093		-0.482866858		1.856355639
Al		2.292414065		-1.762553272		-0.481345097
Al		-0.848757981		-1.802894358		-0.938956943
F		3.503527407		-0.467174093		-1.12732588
F		-1.857451154		-0.536023588		-1.908322797
F		2.749554995		-3.614179294		-0.492387243
F		-1.237039766		-3.665377702		-1.07316142
F		1.962204297		-1.454221793		1.148599302
F		0.830475164		-1.512815282		-1.479728265
F		0.123475552		-1.142564663		3.340670989
F		0.403577471		1.033131699		1.226173736
F		-1.005093068		-1.492329883		0.716318014
