12
-187.24475565
Al		0.386399393		-0.832211758		1.508529939
Al		2.466681965		-1.841125072		-0.595670297
Al		-0.981138981		-1.885404558		-1.097954543
F		3.421421307		-0.554644193		-1.08368578
F		-1.789032254		-0.621560488		-1.842754197
F		2.711402195		-3.458666494		-0.490819443
F		-1.204843166		-3.508962202		-1.06134532
F		1.765751397		-1.336494593		1.335265602
F		0.834480164		-1.499848082		-1.508364465
F		0.079784152		-1.231955363		3.648462889
F		0.411701771		1.339205499		1.143425936
F		-0.873077468		-1.370384383		0.950836414
