12
-187.24475565
Al		0.410914193		-0.987476158		1.353940739
Al		2.544134365		-1.876045872		-0.646481497
Al		-1.039974981		-1.922075758		-1.168620143
F		3.384929707		-0.593519793		-1.06429018
F		-1.758623854		-0.659576888		-1.813612597
F		2.694445395		-3.389549694		-0.490122643
F		-1.190533566		-3.439444202		-1.05609372
F		1.678438997		-1.284171393		1.418228402
F		0.836260164		-1.494084882		-1.521091665
F		0.060365752		-1.271684563		3.785259289
F		0.415312571		1.475238299		1.106649136
F		-0.814403868		-1.316186383		1.055066814
12
-187.24475565
Al		0.404785493		-0.948660058		1.392588039
Al		2.524771265		-1.867315672		-0.633778697
Al		-1.025265981		-1.912907958		-1.150953743
F		3.394052607		-0.583800893		-1.06913908
F		-1.766225954		-0.650072788		-1.820897997
F		2.698684595		-3.406828894		-0.490296843
F		-1.194110966		-3.456823702		-1.05740662
F		1.700267097		-1.297252193		1.397487702
F		0.835815164		-1.495525682		-1.517909865
F		0.065220352		-1.261752263		3.751060189
F		0.414409871		1.441230099		1.115843336
F		-0.829072268		-1.329735883		1.029009214
12
-187.24475565
Al		0.398656793		-0.909843958		1.431235339
Al		2.505408165		-1.858585472		-0.621075897
Al		-1.010556981		-1.903740158		-1.133287343
F		3.403175507		-0.574081993		-1.07398798
F		-1.773828054		-0.640568688		-1.828183397
F		2.702923795		-3.424108094		-0.490471043
F		-1.197688366		-3.474203202		-1.05871952
F		1.722095197		-1.310332993		1.376747002
F		0.835370164		-1.496966482		-1.514728065
F		0.070074952		-1.251819963		3.716861089
F		0.413507171		1.407221899		1.125037536
F		-0.843740668		-1.343285383		1.002951614
12
-187.24475565
Al		0.392528093		-0.871027858		1.469882639
Al		2.486045065		-1.849855272		-0.608373097
Al		-0.995847981		-1.894572358		-1.115620943
F		3.412298407		-0.564363093		-1.07883688
F		-1.781430154		-0.631064588		-1.835468797
F		2.707162995		-3.441387294		-0.490645243
F		-1.201265766		-3.491582702		-1.06003242
F		1.743923297		-1.323413793		1.356006302
F		0.834925164		-1.498407282		-1.511546265
F		0.074929552		-1.241887663		3.682661989
F		0.412604471		1.373213699		1.134231736
F		-0.858409068		-1.356834883		0.976894014
12
-187.24475565
Al		0.386399393		-0.832211758		1.508529939
Al		2.466681965		-1.841125072		-0.595670297
Al		-0.981138981		-1.885404558		-1.097954543
F		3.421421307		-0.554644193		-1.08368578
F		-1.789032254		-0.621560488		-1.842754197
F		2.711402195		-3.458666494		-0.490819443
F		-1.204843166		-3.508962202		-1.06134532
F		1.765751397		-1.336494593		1.335265602
F		0.834480164		-1.499848082		-1.508364465
F		0.079784152		-1.231955363		3.648462889
F		0.411701771		1.339205499		1.143425936
F		-0.873077468		-1.370384383		0.950836414
12
-187.24475565
Al		0.380270693		-0.793395658		1.547177239
Al		2.447318865		-1.832394872		-0.582967497
Al		-0.966429981		-1.876236758		-1.080288143
F		3.430544207		-0.544925293		-1.08853468
F		-1.796634354		-0.612056388		-1.850039597
F		2.715641395		-3.475945694		-0.490993643
F		-1.208420566		-3.526341702		-1.06265822
F		1.787579497		-1.349575393		1.314524902
F		0.834035164		-1.501288882		-1.505182665
F		0.084638752		-1.222023063		3.614263789
F		0.410799071		1.305197299		1.152620136
F		-0.887745868		-1.383933883		0.924778814
12
-187.24475565
Al		0.374141993		-0.754579558		1.585824539
Al		2.427955765		-1.823664672		-0.570264697
Al		-0.951720981		-1.867068958		-1.062621743
F		3.439667107		-0.535206393		-1.09338358
F		-1.804236454		-0.602552288		-1.857324997
F		2.719880595		-3.493224894		-0.491167843
F		-1.211997966		-3.543721202		-1.06397112
F		1.809407597		-1.362656193		1.293784202
F		0.833590164		-1.502729682		-1.502000865
F		0.089493352		-1.212090763		3.580064689
F		0.409896371		1.271189099		1.161814336
F		-0.902414268		-1.397483383		0.898721214
12
-187.24475565
Al		0.368013293		-0.715763458		1.624471839
Al		2.408592665		-1.814934472		-0.557561897
Al		-0.937011981		-1.857901158		-1.044955343
F		3.448790007		-0.525487493		-1.09823248
F		-1.811838554		-0.593048188		-1.864610397
F		2.724119795		-3.510504094		-0.491342043
F		-1.215575366		-3.561100702		-1.06528402
F		1.831235697		-1.375736993		1.273043502
F		0.833145164		-1.504170482		-1.498819065
F		0.094347952		-1.202158463		3.545865589
F		0.408993671		1.237180899		1.171008536
F		-0.917082668		-1.411032883		0.872663614
12
-187.24475565
Al		0.361884593		-0.676947358		1.663119139
Al		2.389229565		-1.806204272		-0.544859097
Al		-0.922302981		-1.848733358		-1.027288943
F		3.457912907		-0.515768593		-1.10308138
F		-1.819440654		-0.583544088		-1.871895797
F		2.728358995		-3.527783294		-0.491516243
F		-1.219152766		-3.578480202		-1.06659692
F		1.853063797		-1.388817793		1.252302802
F		0.832700164		-1.505611282		-1.495637265
F		0.099202552		-1.192226163		3.511666489
F		0.408090971		1.203172699		1.180202736
F		-0.931751068		-1.424582383		0.846606014
12
-187.24475565
Al		0.355755893		-0.638131258		1.701766439
Al		2.369866465		-1.797474072		-0.532156297
Al		-0.907593981		-1.839565558		-1.009622543
F		3.467035807		-0.506049693		-1.10793028
F		-1.827042754		-0.574039988		-1.879181197
F		2.732598195		-3.545062494		-0.491690443
F		-1.222730166		-3.595859702		-1.06790982
F		1.874891897		-1.401898593		1.231562102
F		0.832255164		-1.507052082		-1.492455465
F		0.104057152		-1.182293863		3.477467389
F		0.407188271		1.169164499		1.189396936
F		-0.946419468		-1.438131883		0.820548414
12
-187.24475565
Al		0.349627193		-0.599315158		1.740413739
Al		2.350503365		-1.788743872		-0.519453497
Al		-0.892884981		-1.830397758		-0.991956143
F		3.476158707		-0.496330793		-1.11277918
F		-1.834644854		-0.564535888		-1.886466597
F		2.736837395		-3.562341694		-0.491864643
F		-1.226307566		-3.613239202		-1.06922272
F		1.896719997		-1.414979393		1.210821402
F		0.831810164		-1.508492882		-1.489273665
F		0.108911752		-1.172361563		3.443268289
F		0.406285571		1.135156299		1.198591136
F		-0.961087868		-1.451681383		0.794490814
12
-187.24475565
Al		0.343498493		-0.560499058		1.779061039
Al		2.331140265		-1.780013672		-0.506750697
Al		-0.878175981		-1.821229958		-0.974289743
F		3.485281607		-0.486611893		-1.11762808
F		-1.842246954		-0.555031788		-1.893751997
F		2.741076595		-3.579620894		-0.492038843
F		-1.229884966		-3.630618702		-1.07053562
F		1.918548097		-1.428060193		1.190080702
F		0.831365164		-1.509933682		-1.486091865
F		0.113766352		-1.162429263		3.409069189
F		0.405382871		1.101148099		1.207785336
F		-0.975756268		-1.465230883		0.768433214
12
-187.24475565
Al		0.337369793		-0.521682958		1.817708339
Al		2.311777165		-1.771283472		-0.494047897
Al		-0.863466981		-1.812062158		-0.956623343
F		3.494404507		-0.476892993		-1.12247698
F		-1.849849054		-0.545527688		-1.901037397
F		2.745315795		-3.596900094		-0.492213043
F		-1.233462366		-3.647998202		-1.07184852
F		1.940376197		-1.441140993		1.169340002
F		0.830920164		-1.511374482		-1.482910065
F		0.118620952		-1.152496963		3.374870089
F		0.404480171		1.067139899		1.216979536
F		-0.990424668		-1.478780383		0.742375614
12
-187.24475565
Al		0.331241093		-0.482866858		1.856355639
Al		2.292414065		-1.762553272		-0.481345097
Al		-0.848757981		-1.802894358		-0.938956943
F		3.503527407		-0.467174093		-1.12732588
F		-1.857451154		-0.536023588		-1.908322797
F		2.749554995		-3.614179294		-0.492387243
F		-1.237039766		-3.665377702		-1.07316142
F		1.962204297		-1.454221793		1.148599302
F		0.830475164		-1.512815282		-1.479728265
F		0.123475552		-1.142564663		3.340670989
F		0.403577471		1.033131699		1.226173736
F		-1.005093068		-1.492329883		0.716318014
12
-187.24475565
Al		0.325112393		-0.444050758		1.895002939
Al		2.273050965		-1.753823072		-0.468642297
Al		-0.834048981		-1.793726558		-0.921290543
F		3.512650307		-0.457455193		-1.13217478
F		-1.865053254		-0.526519488		-1.915608197
F		2.753794195		-3.631458494		-0.492561443
F		-1.240617166		-3.682757202		-1.07447432
F		1.984032397		-1.467302593		1.127858602
F		0.830030164		-1.514256082		-1.476546465
F		0.128330152		-1.132632363		3.306471889
F		0.402674771		0.999123499		1.235367936
F		-1.019761468		-1.505879383		0.690260414
12
-187.24475565
Al		0.318983693		-0.405234658		1.933650239
Al		2.253687865		-1.745092872		-0.455939497
Al		-0.819339981		-1.784558758		-0.903624143
F		3.521773207		-0.447736293		-1.13702368
F		-1.872655354		-0.517015388		-1.922893597
F		2.758033395		-3.648737694		-0.492735643
F		-1.244194566		-3.700136702		-1.07578722
F		2.005860497		-1.480383393		1.107117902
F		0.829585164		-1.515696882		-1.473364665
F		0.133184752		-1.122700063		3.272272789
F		0.401772071		0.965115299		1.244562136
F		-1.034429868		-1.519428883		0.664202814
12
-187.24475565
Al		0.312854993		-0.366418558		1.972297539
Al		2.234324765		-1.736362672		-0.443236697
Al		-0.804630981		-1.775390958		-0.885957743
F		3.530896107		-0.438017393		-1.14187258
F		-1.880257454		-0.507511288		-1.930178997
F		2.762272595		-3.666016894		-0.492909843
F		-1.247771966		-3.717516202		-1.07710012
F		2.027688597		-1.493464193		1.086377202
F		0.829140164		-1.517137682		-1.470182865
F		0.138039352		-1.112767763		3.238073689
F		0.400869371		0.931107099		1.253756336
F		-1.049098268		-1.532978383		0.638145214
12
-187.24475565
Al		0.306726293		-0.327602458		2.010944839
Al		2.214961665		-1.727632472		-0.430533897
Al		-0.789921981		-1.766223158		-0.868291343
F		3.540019007		-0.428298493		-1.14672148
F		-1.887859554		-0.498007188		-1.937464397
F		2.766511795		-3.683296094		-0.493084043
F		-1.251349366		-3.734895702		-1.07841302
F		2.049516697		-1.506544993		1.065636502
F		0.828695164		-1.518578482		-1.467001065
F		0.142893952		-1.102835463		3.203874589
F		0.399966671		0.897098899		1.262950536
F		-1.063766668		-1.546527883		0.612087614
12
-187.24475565
Al		0.300597593		-0.288786358		2.049592139
Al		2.195598565		-1.718902272		-0.417831097
Al		-0.775212981		-1.757055358		-0.850624943
F		3.549141907		-0.418579593		-1.15157038
F		-1.895461654		-0.488503088		-1.944749797
F		2.770750995		-3.700575294		-0.493258243
F		-1.254926766		-3.752275202		-1.07972592
F		2.071344797		-1.519625793		1.044895802
F		0.828250164		-1.520019282		-1.463819265
F		0.147748552		-1.092903163		3.169675489
F		0.399063971		0.863090699		1.272144736
F		-1.078435068		-1.560077383		0.586030014
12
-187.24475565
Al		0.294468893		-0.249970258		2.088239439
Al		2.176235465		-1.710172072		-0.405128297
Al		-0.760503981		-1.747887558		-0.832958543
F		3.558264807		-0.408860693		-1.15641928
F		-1.903063754		-0.478998988		-1.952035197
F		2.774990195		-3.717854494		-0.493432443
F		-1.258504166		-3.769654702		-1.08103882
F		2.093172897		-1.532706593		1.024155102
F		0.827805164		-1.521460082		-1.460637465
F		0.152603152		-1.082970863		3.135476389
F		0.398161271		0.829082499		1.281338936
F		-1.093103468		-1.573626883		0.559972414
