      12
SCF Done            -185.80858130
Al            1.285078180         0.079526717         2.380991773
Al            1.216321700         1.218944800        -0.262994500
Al           -0.361081662         0.824627450        -2.377052173
F            -1.610901472        -0.316952653        -2.222705206
F             2.079595653        -0.395648053         0.809630552
F             0.034994039         1.781583890        -3.739129033
F            -0.306923610         1.922604353        -0.721133349
F             2.588952357         2.420417912        -0.317154443
F             1.285508739         0.065371805        -1.562911854
F             0.428355817         1.530166129         1.682494839
F             2.593971369         0.616988476         3.671278637
F            -0.034769025        -1.255721852         2.830152771
