12
-185.77729729
Al		0.274185289		-2.328405921		-1.824116917
Al		2.035313544		-0.540741862		-0.808800545
Al		-0.334449925		0.309269812		-1.803718116
F		3.626225067		-0.17965109		-0.034036672
F		-0.169262545		-4.032817685		-2.224098688
F		2.100024548		-1.81403503		-2.287061852
F		1.530114002		0.654385075		-2.267264486
F		-1.481913629		1.652590799		-2.17850022
F		-1.142647669		-1.272996999		-0.994245638
F		-0.117763701		-1.018534983		-3.21811842
F		0.505230049		0.399923061		-0.04339169
F		1.075140588		-2.068497037		-0.063189067
