12
-185.77729729
Al		0.273696677		-2.328538761		-1.823017301
Al		2.03553624		-0.540667174		-0.809291789
Al		-0.334184005		0.30932796		-1.804326492
F		3.626627895		-0.17951599		-0.034925272
F		-0.170146389		-4.033057973		-2.222109616
F		2.099660516		-1.814850214		-2.28674522
F		1.53034255		0.653719887		-2.268289238
F		-1.481432613		1.652695987		-2.179600696
F		-1.142667373		-1.272286143		-0.993698682
F		-0.118093785		-1.019363155		-3.21789378
F		0.505768977		0.400796901		-0.044094122
F		1.075086936		-2.067773193		-0.062550119
