12
-185.77729729
Al		0.273452371		-2.328605181		-1.822467493
Al		2.035647588		-0.54062983		-0.809537411
Al		-0.334051045		0.309357034		-1.80463068
F		3.626829309		-0.17944844		-0.035369572
F		-0.170588311		-4.033178117		-2.22111508
F		2.0994785		-1.815257806		-2.286586904
F		1.530456824		0.653387293		-2.268801614
F		-1.481192105		1.652748581		-2.180150934
F		-1.142677225		-1.271930715		-0.993425204
F		-0.118258827		-1.019777241		-3.21778146
F		0.506038441		0.401233821		-0.044445338
F		1.07506011		-2.067411271		-0.062230645
