12
-185.77729729
Al		0.272719453		-2.328804441		-1.820818069
Al		2.035981632		-0.540517798		-0.810274277
Al		-0.333652165		0.309444256		-1.805543244
F		3.627433551		-0.17924579		-0.036702472
F		-0.171914077		-4.033538549		-2.218131472
F		2.098932452		-1.816480582		-2.286111956
F		1.530799646		0.652389511		-2.270338742
F		-1.480470581		1.652906363		-2.181801648
F		-1.142706781		-1.270864431		-0.99260477
F		-0.118753953		-1.021019499		-3.2174445
F		0.506846833		0.402544581		-0.045498986
F		1.074979632		-2.066325505		-0.061272223
