12
-185.77729729
Al		0.2725973		-2.328837651		-1.820543165
Al		2.036037306		-0.540499126		-0.810397088
Al		-0.333585685		0.309458793		-1.805695338
F		3.627534258		-0.179212015		-0.036924622
F		-0.172135038		-4.033598621		-2.217634204
F		2.098841444		-1.816684378		-2.286032798
F		1.530856783		0.652223214		-2.27059493
F		-1.480350327		1.65293266		-2.182076767
F		-1.142711707		-1.270686717		-0.992468031
F		-0.118836474		-1.021226542		-3.21738834
F		0.506981565		0.402763041		-0.045674594
F		1.074966219		-2.066144544		-0.061112486
