12
-185.77729729
Al		0.272475147		-2.328870861		-1.820268261
Al		2.03609298		-0.540480454		-0.810519899
Al		-0.333519205		0.30947333		-1.805847432
F		3.627634965		-0.17917824		-0.037146772
F		-0.172355999		-4.033658693		-2.217136936
F		2.098750436		-1.816888174		-2.28595364
F		1.53091392		0.652056917		-2.270851118
F		-1.480230073		1.652958957		-2.182351886
F		-1.142716633		-1.270509003		-0.992331292
F		-0.118918995		-1.021433585		-3.21733218
F		0.507116297		0.402981501		-0.045850202
F		1.074952806		-2.065963583		-0.060952749
