12
-185.77729729
Al		0.271009311		-2.329269381		-1.816969413
Al		2.036761068		-0.54025639		-0.811993631
Al		-0.332721445		0.309647774		-1.80767256
F		3.628843449		-0.17877294		-0.039812572
F		-0.175007531		-4.034379557		-2.21116972
F		2.09765834		-1.819333726		-2.285003744
F		1.531599564		0.650061353		-2.273925374
F		-1.478787025		1.653274521		-2.185653314
F		-1.142775745		-1.268376435		-0.990690424
F		-0.119909247		-1.023918101		-3.21665826
F		0.508733081		0.405603021		-0.047957498
F		1.07479185		-2.063792051		-0.059035905
