12
-185.77729729
Al		0.270520699		-2.329402221		-1.815869797
Al		2.036983764		-0.540181702		-0.812484875
Al		-0.332455525		0.309705922		-1.808280936
F		3.629246277		-0.17863784		-0.040701172
F		-0.175891375		-4.034619845		-2.209180648
F		2.097294308		-1.82014891		-2.284687112
F		1.531828112		0.649396165		-2.274950126
F		-1.478306009		1.653379709		-2.18675379
F		-1.142795449		-1.267665579		-0.990143468
F		-0.120239331		-1.024746273		-3.21643362
F		0.509272009		0.406476861		-0.04865993
F		1.074738198		-2.063068207		-0.058396957
