12
-185.77729729
Al		0.270398546		-2.329435431		-1.815594893
Al		2.037039438		-0.54016303		-0.812607686
Al		-0.332389045		0.309720459		-1.80843303
F		3.629346984		-0.178604065		-0.040923322
F		-0.176112336		-4.034679917		-2.20868338
F		2.0972033		-1.820352706		-2.284607954
F		1.531885249		0.649229868		-2.275206314
F		-1.478185755		1.653406006		-2.187028909
F		-1.142800375		-1.267487865		-0.990006729
F		-0.120321852		-1.024953316		-3.21637746
F		0.509406741		0.406695321		-0.048835538
F		1.074724785		-2.062887246		-0.05823722
