12
-185.77729729
Al		0.270276393		-2.329468641		-1.815319989
Al		2.037095112		-0.540144358		-0.812730497
Al		-0.332322565		0.309734996		-1.808585124
F		3.629447691		-0.17857029		-0.041145472
F		-0.176333297		-4.034739989		-2.208186112
F		2.097112292		-1.820556502		-2.284528796
F		1.531942386		0.649063571		-2.275462502
F		-1.478065501		1.653432303		-2.187304028
F		-1.142805301		-1.267310151		-0.98986999
F		-0.120404373		-1.025160359		-3.2163213
F		0.509541473		0.406913781		-0.049011146
F		1.074711372		-2.062706285		-0.058077483
