12
-185.77729729
Al		0.270032087		-2.329535061		-1.814770181
Al		2.03720646		-0.540107014		-0.812976119
Al		-0.332189605		0.30976407		-1.808889312
F		3.629649105		-0.17850274		-0.041589772
F		-0.176775219		-4.034860133		-2.207191576
F		2.096930276		-1.820964094		-2.28437048
F		1.53205666		0.648730977		-2.275974878
F		-1.477824993		1.653484897		-2.187854266
F		-1.142815153		-1.266954723		-0.989596512
F		-0.120569415		-1.025574445		-3.21620898
F		0.509810937		0.407350701		-0.049362362
F		1.074684546		-2.062344363		-0.057758009
