12
-185.77729729
Al		0.274918207		-2.328206661		-1.825766341
Al		2.0349795		-0.540853894		-0.808063679
Al		-0.334848805		0.30918259		-1.802805552
F		3.625620825		-0.17985374		-0.032703772
F		-0.167936779		-4.032457253		-2.227082296
F		2.100570596		-1.812812254		-2.2875368
F		1.52977118		0.655382857		-2.265727358
F		-1.482635153		1.652433017		-2.176849506
F		-1.142618113		-1.274063283		-0.995066072
F		-0.117268575		-1.017292725		-3.21845538
F		0.504421657		0.398612301		-0.042338042
F		1.075221066		-2.069582803		-0.064147489
