12
-185.77729729
Al		0.269177016		-2.329767531		-1.812845853
Al		2.037596178		-0.53997631		-0.813835796
Al		-0.331724245		0.309865829		-1.80995397
F		3.630354054		-0.178266315		-0.043144822
F		-0.178321946		-4.035280637		-2.2037107
F		2.09629322		-1.822390666		-2.283816374
F		1.532456619		0.647566898		-2.277768194
F		-1.476983215		1.653668976		-2.189780099
F		-1.142849635		-1.265710725		-0.988639339
F		-0.121147062		-1.027023746		-3.21581586
F		0.510754061		0.408879921		-0.050591618
F		1.074590655		-2.061077636		-0.05663985
