12
-185.77729729
Al		0.26893271		-2.329833951		-1.812296045
Al		2.037707526		-0.539938966		-0.814081418
Al		-0.331591285		0.309894903		-1.810258158
F		3.630555468		-0.178198765		-0.043589122
F		-0.178763868		-4.035400781		-2.202716164
F		2.096111204		-1.822798258		-2.283658058
F		1.532570893		0.647234304		-2.27828057
F		-1.476742707		1.65372157		-2.190330337
F		-1.142859487		-1.265355297		-0.988365861
F		-0.121312104		-1.027437832		-3.21570354
F		0.511023525		0.409316841		-0.050942834
F		1.074563829		-2.060715714		-0.056320376
