12
-185.77729729
Al		0.268810557		-2.329867161		-1.812021141
Al		2.0377632		-0.539920294		-0.814204229
Al		-0.331524805		0.30990944		-1.810410252
F		3.630656175		-0.17816499		-0.043811272
F		-0.178984829		-4.035460853		-2.202218896
F		2.096020196		-1.823002054		-2.2835789
F		1.53262803		0.647068007		-2.278536758
F		-1.476622453		1.653747867		-2.190605456
F		-1.142864413		-1.265177583		-0.988229122
F		-0.121394625		-1.027644875		-3.21564738
F		0.511158257		0.409535301		-0.051118442
F		1.074550416		-2.060534753		-0.056160639
