12
-185.77729729
Al		0.268321945		-2.330000001		-1.810921525
Al		2.037985896		-0.539845606		-0.814695473
Al		-0.331258885		0.309967588		-1.811018628
F		3.631059003		-0.17802989		-0.044699872
F		-0.179868673		-4.035701141		-2.200229824
F		2.095656164		-1.823817238		-2.283262268
F		1.532856578		0.646402819		-2.27956151
F		-1.476141437		1.653853055		-2.191705932
F		-1.142884117		-1.264466727		-0.987682166
F		-0.121724709		-1.028473047		-3.21542274
F		0.511697185		0.410409141		-0.051820874
F		1.074496764		-2.059810909		-0.055521691
