12
-185.77729729
Al		0.268077639		-2.330066421		-1.810371717
Al		2.038097244		-0.539808262		-0.814941095
Al		-0.331125925		0.309996662		-1.811322816
F		3.631260417		-0.17796234		-0.045144172
F		-0.180310595		-4.035821285		-2.199235288
F		2.095474148		-1.82422483		-2.283103952
F		1.532970852		0.646070225		-2.280073886
F		-1.475900929		1.653905649		-2.19225617
F		-1.142893969		-1.264111299		-0.987408688
F		-0.121889751		-1.028887133		-3.21531042
F		0.511966649		0.410846061		-0.05217209
F		1.074469938		-2.059448987		-0.055202217
