12
-185.77729729
Al		0.267955486		-2.330099631		-1.810096813
Al		2.038152918		-0.53978959		-0.815063906
Al		-0.331059445		0.310011199		-1.81147491
F		3.631361124		-0.177928565		-0.045366322
F		-0.180531556		-4.035881357		-2.19873802
F		2.09538314		-1.824428626		-2.283024794
F		1.533027989		0.645903928		-2.280330074
F		-1.475780675		1.653931946		-2.192531289
F		-1.142898895		-1.263933585		-0.987271949
F		-0.121972272		-1.029094176		-3.21525426
F		0.512101381		0.411064521		-0.052347698
F		1.074456525		-2.059268026		-0.05504248
