12
-185.77729729
Al		0.26771118		-2.330166051		-1.809547005
Al		2.038264266		-0.539752246		-0.815309528
Al		-0.330926485		0.310040273		-1.811779098
F		3.631562538		-0.177861015		-0.045810622
F		-0.180973478		-4.036001501		-2.197743484
F		2.095201124		-1.824836218		-2.282866478
F		1.533142263		0.645571334		-2.28084245
F		-1.475540167		1.65398454		-2.193081527
F		-1.142908747		-1.263578157		-0.986998471
F		-0.122137314		-1.029508262		-3.21514194
F		0.512370845		0.411501441		-0.052698914
F		1.074429699		-2.058906104		-0.054723006
