12
-185.77729729
Al		0.267589027		-2.330199261		-1.809272101
Al		2.03831994		-0.539733574		-0.815432339
Al		-0.330860005		0.31005481		-1.811931192
F		3.631663245		-0.17782724		-0.046032772
F		-0.181194439		-4.036061573		-2.197246216
F		2.095110116		-1.825040014		-2.28278732
F		1.5331994		0.645405037		-2.281098638
F		-1.475419913		1.654010837		-2.193356646
F		-1.142913673		-1.263400443		-0.986861732
F		-0.122219835		-1.029715305		-3.21508578
F		0.512505577		0.411719901		-0.052874522
F		1.074416286		-2.058725143		-0.054563269
