12
-185.77729729
Al		0.266123191		-2.330597781		-1.805973253
Al		2.038988028		-0.53950951		-0.816906071
Al		-0.330062245		0.310229254		-1.81375632
F		3.632871729		-0.17742194		-0.048698572
F		-0.183845971		-4.036782437		-2.191279
F		2.09401802		-1.827485566		-2.281837424
F		1.533885044		0.643409473		-2.284172894
F		-1.473976865		1.654326401		-2.196658074
F		-1.142972785		-1.261267875		-0.985220864
F		-0.123210087		-1.032199821		-3.21441186
F		0.514122361		0.414341421		-0.054981818
F		1.07425533		-2.056553611		-0.052646425
