12
-185.77729729
Al		0.266001038		-2.330630991		-1.805698349
Al		2.039043702		-0.539490838		-0.817028882
Al		-0.329995765		0.310243791		-1.813908414
F		3.632972436		-0.177388165		-0.048920722
F		-0.184066932		-4.036842509		-2.190781732
F		2.093927012		-1.827689362		-2.281758266
F		1.533942181		0.643243176		-2.284429082
F		-1.473856611		1.654352698		-2.196933193
F		-1.142977711		-1.261090161		-0.985084125
F		-0.123292608		-1.032406864		-3.2143557
F		0.514257093		0.414559881		-0.055157426
F		1.074241917		-2.05637265		-0.052486688
