12
-185.77729729
Al		0.265634579		-2.330730621		-1.804873637
Al		2.039210724		-0.539434822		-0.817397315
Al		-0.329796325		0.310287402		-1.814364696
F		3.633274557		-0.17728684		-0.049587172
F		-0.184729815		-4.037022725		-2.189289928
F		2.093653988		-1.82830075		-2.281520792
F		1.534113592		0.642744285		-2.285197646
F		-1.473495849		1.654431589		-2.19775855
F		-1.142992489		-1.260557019		-0.984673908
F		-0.123540171		-1.033027993		-3.21418722
F		0.514661289		0.415215261		-0.05568425
F		1.074201678		-2.055829767		-0.052007477
