12
-185.77729729
Al		0.264657355		-2.330996301		-1.802674405
Al		2.039656116		-0.539285446		-0.818379803
Al		-0.329264485		0.310403698		-1.815581448
F		3.634080213		-0.17701664		-0.051364372
F		-0.186497503		-4.037503301		-2.185311784
F		2.092925924		-1.829931118		-2.280887528
F		1.534570688		0.641413909		-2.28724715
F		-1.472533817		1.654641965		-2.199959502
F		-1.143031897		-1.259135307		-0.983579996
F		-0.124200339		-1.034684337		-3.21373794
F		0.515739145		0.416962941		-0.057089114
F		1.074094374		-2.054382079		-0.050729581
