12
-185.77729729
Al		0.274429595		-2.328339501		-1.824666725
Al		2.035202196		-0.540779206		-0.808554923
Al		-0.334582885		0.309240738		-1.803413928
F		3.626023653		-0.17971864		-0.033592372
F		-0.168820623		-4.032697541		-2.225093224
F		2.100206564		-1.813627438		-2.287220168
F		1.529999728		0.654717669		-2.26675211
F		-1.482154137		1.652538205		-2.177949982
F		-1.142637817		-1.273352427		-0.994519116
F		-0.117598659		-1.018120897		-3.21823074
F		0.504960585		0.399486141		-0.043040474
F		1.075167414		-2.068858959		-0.063508541
