12
-185.77729729
Al		0.263924437		-2.331195561		-1.801024981
Al		2.03999016		-0.539173414		-0.819116669
Al		-0.328865605		0.31049092		-1.816494012
F		3.634684455		-0.17681399		-0.052697272
F		-0.187823269		-4.037863733		-2.182328176
F		2.092379876		-1.831153894		-2.28041258
F		1.53491351		0.640416127		-2.288784278
F		-1.471812293		1.654799747		-2.201610216
F		-1.143061453		-1.258069023		-0.982759562
F		-0.124695465		-1.035926595		-3.21340098
F		0.516547537		0.418273701		-0.058142762
F		1.074013896		-2.053296313		-0.049771159
