12
-185.77729729
Al		0.276994808		-2.327642091		-1.830439709
Al		2.034033042		-0.541171318		-0.805975892
Al		-0.335978965		0.308935461		-1.800219954
F		3.623908806		-0.180427915		-0.028927222
F		-0.164180442		-4.031436029		-2.235535852
F		2.102117732		-1.809347722		-2.288882486
F		1.528799851		0.658209906		-2.261372162
F		-1.484679471		1.651985968		-2.172172483
F		-1.142534371		-1.277084421		-0.997390635
F		-0.115865718		-1.013772994		-3.2194101
F		0.502131213		0.394898481		-0.039352706
F		1.075449087		-2.07265914		-0.066863018
