12
-185.77729729
Al		0.277972032		-2.327376411		-1.832638941
Al		2.03358765		-0.541320694		-0.804993404
Al		-0.336510805		0.308819165		-1.799003202
F		3.62310315		-0.180698115		-0.027150022
F		-0.162412754		-4.030955453		-2.239513996
F		2.102845796		-1.807717354		-2.28951575
F		1.528342755		0.659540282		-2.259322658
F		-1.485641503		1.651775592		-2.169971531
F		-1.142494963		-1.278506133		-0.998484547
F		-0.11520555		-1.01211665		-3.21985938
F		0.501053357		0.393150801		-0.037947842
F		1.075556391		-2.074106828		-0.068140914
