12
-185.77729729
Al		0.27870495		-2.327177151		-1.834288365
Al		2.033253606		-0.541432726		-0.804256538
Al		-0.336909685		0.308731943		-1.798090638
F		3.622498908		-0.180900765		-0.025817122
F		-0.161086988		-4.030595021		-2.242497604
F		2.103391844		-1.806494578		-2.289990698
F		1.527999933		0.660538064		-2.25778553
F		-1.486363027		1.65161781		-2.168320817
F		-1.142465407		-1.279572417		-0.999304981
F		-0.114710424		-1.010874392		-3.22019634
F		0.500244965		0.391840041		-0.036894194
F		1.075636869		-2.075192594		-0.069099336
