12
-185.77729729
Al		0.280170786		-2.326778631		-1.837587213
Al		2.032585518		-0.54165679		-0.802782806
Al		-0.337707445		0.308557499		-1.79626551
F		3.621290424		-0.181306065		-0.023151322
F		-0.158435456		-4.029874157		-2.24846482
F		2.10448394		-1.804049026		-2.290940594
F		1.527314289		0.662533628		-2.254711274
F		-1.487806075		1.651302246		-2.165019389
F		-1.142406295		-1.281704985		-1.000945849
F		-0.113720172		-1.008389876		-3.22087026
F		0.498628181		0.389218521		-0.034786898
F		1.075797825		-2.077364126		-0.07101618
