12
-185.77729729
Al		0.280415092		-2.326712211		-1.838137021
Al		2.03247417		-0.541694134		-0.802537184
Al		-0.337840405		0.308528425		-1.795961322
F		3.62108901		-0.181373615		-0.022707022
F		-0.157993534		-4.029754013		-2.249459356
F		2.104665956		-1.803641434		-2.29109891
F		1.527200015		0.662866222		-2.254198898
F		-1.488046583		1.651249652		-2.164469151
F		-1.142396443		-1.282060413		-1.001219327
F		-0.11355513		-1.00797579		-3.22098258
F		0.498358717		0.388781601		-0.034435682
F		1.075824651		-2.077726048		-0.071335654
