12
-185.77729729
Al		0.280903704		-2.326579371		-1.839236637
Al		2.032251474		-0.541768822		-0.80204594
Al		-0.338106325		0.308470277		-1.795352946
F		3.620686182		-0.181508715		-0.021818422
F		-0.15710969		-4.029513725		-2.251448428
F		2.105029988		-1.80282625		-2.291415542
F		1.526971467		0.66353141		-2.253174146
F		-1.488527599		1.651144464		-2.163368675
F		-1.142376739		-1.282771269		-1.001766283
F		-0.113225046		-1.007147618		-3.22120722
F		0.497819789		0.387907761		-0.03373325
F		1.075878303		-2.078449892		-0.071974602
