12
-185.77729729
Al		0.281025857		-2.326546161		-1.839511541
Al		2.0321958		-0.541787494		-0.801923129
Al		-0.338172805		0.30845574		-1.795200852
F		3.620585475		-0.18154249		-0.021596272
F		-0.156888729		-4.029453653		-2.251945696
F		2.105120996		-1.802622454		-2.2914947
F		1.52691433		0.663697707		-2.252917958
F		-1.488647853		1.651118167		-2.163093556
F		-1.142371813		-1.282948983		-1.001903022
F		-0.113142525		-1.006940575		-3.22126338
F		0.497685057		0.387689301		-0.033557642
F		1.075891716		-2.078630853		-0.072134339
