12
-185.77729729
Al		0.281270163		-2.326479741		-1.840061349
Al		2.032084452		-0.541824838		-0.801677507
Al		-0.338305765		0.308426666		-1.794896664
F		3.620384061		-0.18161004		-0.021151972
F		-0.156446807		-4.029333509		-2.252940232
F		2.105303012		-1.802214862		-2.291653016
F		1.526800056		0.664030301		-2.252405582
F		-1.488888361		1.651065573		-2.162543318
F		-1.142361961		-1.283304411		-1.0021765
F		-0.112977483		-1.006526489		-3.2213757
F		0.497415593		0.387252381		-0.033206426
F		1.075918542		-2.078992775		-0.072453813
