12
-185.77729729
Al		0.276139737		-2.327874561		-1.828515381
Al		2.03442276		-0.541040614		-0.806835569
Al		-0.335513605		0.30903722		-1.801284612
F		3.624613755		-0.18019149		-0.030482272
F		-0.165727169		-4.031856533		-2.232054976
F		2.101480676		-1.810774294		-2.28832838
F		1.52919981		0.657045827		-2.263165478
F		-1.483837693		1.652170047		-2.174098316
F		-1.142568853		-1.275840423		-0.996433462
F		-0.116443365		-1.015222295		-3.21901698
F		0.503074337		0.396427701		-0.040581962
F		1.075355196		-2.071392413		-0.065744859
