12
-185.77729729
Al		0.281880928		-2.326313691		-1.841435869
Al		2.031806082		-0.541918198		-0.801063452
Al		-0.338638165		0.308353981		-1.794136194
F		3.619880526		-0.181778915		-0.020041222
F		-0.155342002		-4.029033149		-2.255426572
F		2.105758052		-1.801195882		-2.292048806
F		1.526514371		0.664861786		-2.251124642
F		-1.489489631		1.650934088		-2.161167723
F		-1.142337331		-1.284192981		-1.002860195
F		-0.112564878		-1.005491274		-3.2216565
F		0.496741933		0.386160081		-0.032328386
F		1.075985607		-2.07989758		-0.073252498
