12
-185.77729729
Al		0.28236954		-2.326180851		-1.842535485
Al		2.031583386		-0.541992886		-0.800572208
Al		-0.338904085		0.308295833		-1.793527818
F		3.619477698		-0.181914015		-0.019152622
F		-0.154458158		-4.028792861		-2.257415644
F		2.106122084		-1.800380698		-2.292365438
F		1.526285823		0.665526974		-2.25009989
F		-1.489970647		1.6508289		-2.160067247
F		-1.142317627		-1.284903837		-1.003407151
F		-0.112234794		-1.004663102		-3.22188114
F		0.496203005		0.385286241		-0.031625954
F		1.076039259		-2.080621424		-0.073891446
