12
-185.77729729
Al		0.27626189		-2.327841351		-1.828790285
Al		2.034367086		-0.541059286		-0.806712758
Al		-0.335580085		0.309022683		-1.801132518
F		3.624513048		-0.180225265		-0.030260122
F		-0.165506208		-4.031796461		-2.232552244
F		2.101571684		-1.810570498		-2.288407538
F		1.529142673		0.657212124		-2.26290929
F		-1.483957947		1.65214375		-2.173823197
F		-1.142563927		-1.276018137		-0.996570201
F		-0.116360844		-1.015015252		-3.21907314
F		0.502939605		0.396209241		-0.040406354
F		1.075368609		-2.071573374		-0.065904596
