12
-185.77729729
Al		0.28359107		-2.325848751		-1.845284525
Al		2.031026646		-0.542179606		-0.799344098
Al		-0.339568885		0.308150463		-1.792006878
F		3.618470628		-0.182251765		-0.016931122
F		-0.152248548		-4.028192141		-2.262388324
F		2.107032164		-1.798342738		-2.293157018
F		1.525714453		0.667189944		-2.24753801
F		-1.491173187		1.65056593		-2.157316057
F		-1.142268367		-1.286680977		-1.004774541
F		-0.111409584		-1.002592672		-3.22244274
F		0.494855685		0.383101641		-0.029869874
F		1.076173389		-2.082431034		-0.075488816
