12
-185.77729729
Al		0.283713223		-2.325815541		-1.845559429
Al		2.030970972		-0.542198278		-0.799221287
Al		-0.339635365		0.308135926		-1.791854784
F		3.618369921		-0.18228554		-0.016708972
F		-0.152027587		-4.028132069		-2.262885592
F		2.107123172		-1.798138942		-2.293236176
F		1.525657316		0.667356241		-2.247281822
F		-1.491293441		1.650539633		-2.157040938
F		-1.142263441		-1.286858691		-1.00491128
F		-0.111327063		-1.002385629		-3.2224989
F		0.494720953		0.382883181		-0.029694266
F		1.076186802		-2.082611995		-0.075648553
