12
-185.77729729
Al		0.283957529		-2.325749121		-1.846109237
Al		2.030859624		-0.542235622		-0.798975665
Al		-0.339768325		0.308106852		-1.791550596
F		3.618168507		-0.18235309		-0.016264672
F		-0.151585665		-4.028011925		-2.263880128
F		2.107305188		-1.79773135		-2.293394492
F		1.525543042		0.667688835		-2.246769446
F		-1.491533949		1.650487039		-2.1564907
F		-1.142253589		-1.287214119		-1.005184758
F		-0.111162021		-1.001971543		-3.22261122
F		0.494451489		0.382446261		-0.02934305
F		1.076213628		-2.082973917		-0.075968027
