12
-185.77729729
Al		0.276384043		-2.327808141		-1.829065189
Al		2.034311412		-0.541077958		-0.806589947
Al		-0.335646565		0.309008146		-1.800980424
F		3.624412341		-0.18025904		-0.030037972
F		-0.165285247		-4.031736389		-2.233049512
F		2.101662692		-1.810366702		-2.288486696
F		1.529085536		0.657378421		-2.262653102
F		-1.484078201		1.652117453		-2.173548078
F		-1.142559001		-1.276195851		-0.99670694
F		-0.116278323		-1.014808209		-3.2191293
F		0.502804873		0.395990781		-0.040230746
F		1.075382022		-2.071754335		-0.066064333
