12
-185.77729729
Al		0.284323988		-2.325649491		-1.846933949
Al		2.030692602		-0.542291638		-0.798607232
Al		-0.339967765		0.308063241		-1.791094314
F		3.617866386		-0.182454415		-0.015598222
F		-0.150922782		-4.027831709		-2.265371932
F		2.107578212		-1.797119962		-2.293631966
F		1.525371631		0.668187726		-2.246000882
F		-1.491894711		1.650408148		-2.155665343
F		-1.142238811		-1.287747261		-1.005594975
F		-0.110914458		-1.001350414		-3.2227797
F		0.494047293		0.381790881		-0.028816226
F		1.076253867		-2.0835168		-0.076447238
