12
-185.77729729
Al		0.284690447		-2.325549861		-1.847758661
Al		2.03052558		-0.542347654		-0.798238799
Al		-0.340167205		0.30801963		-1.790638032
F		3.617564265		-0.18255574		-0.014931772
F		-0.150259899		-4.027651493		-2.266863736
F		2.107851236		-1.796508574		-2.29386944
F		1.52520022		0.668686617		-2.245232318
F		-1.492255473		1.650329257		-2.154839986
F		-1.142224033		-1.288280403		-1.006005192
F		-0.110666895		-1.000729285		-3.22294818
F		0.493643097		0.381135501		-0.028289402
F		1.076294106		-2.084059683		-0.076926449
