12
-185.77729729
Al		0.2848126		-2.325516651		-1.848033565
Al		2.030469906		-0.542366326		-0.798115988
Al		-0.340233685		0.308005093		-1.790485938
F		3.617463558		-0.182589515		-0.014709622
F		-0.150038938		-4.027591421		-2.267361004
F		2.107942244		-1.796304778		-2.293948598
F		1.525143083		0.668852914		-2.24497613
F		-1.492375727		1.65030296		-2.154564867
F		-1.142219107		-1.288458117		-1.006141931
F		-0.110584374		-1.000522242		-3.22300434
F		0.493508365		0.380917041		-0.028113794
F		1.076307519		-2.084240644		-0.077086186
