12
-185.77729729
Al		0.285056906		-2.325450231		-1.848583373
Al		2.030358558		-0.54240367		-0.797870366
Al		-0.340366645		0.307976019		-1.79018175
F		3.617262144		-0.182657065		-0.014265322
F		-0.149597016		-4.027471277		-2.26835554
F		2.10812426		-1.795897186		-2.294106914
F		1.525028809		0.669185508		-2.244463754
F		-1.492616235		1.650250366		-2.154014629
F		-1.142209255		-1.288813545		-1.006415409
F		-0.110419332		-1.000108156		-3.22311666
F		0.493238901		0.380480121		-0.027762578
F		1.076334345		-2.084602566		-0.07740566
