12
-185.77729729
Al		0.276506196		-2.327774931		-1.829340093
Al		2.034255738		-0.54109663		-0.806467136
Al		-0.335713045		0.308993609		-1.80082833
F		3.624311634		-0.180292815		-0.029815822
F		-0.165064286		-4.031676317		-2.23354678
F		2.1017537		-1.810162906		-2.288565854
F		1.529028399		0.657544718		-2.262396914
F		-1.484198455		1.652091156		-2.173272959
F		-1.142554075		-1.276373565		-0.996843679
F		-0.116195802		-1.014601166		-3.21918546
F		0.502670141		0.395772321		-0.040055138
F		1.075395435		-2.071935296		-0.06622407
