12
-185.77729729
Al		0.285911977		-2.325217761		-1.850507701
Al		2.02996884		-0.542534374		-0.797010689
Al		-0.340832005		0.30787426		-1.789117092
F		3.616557195		-0.18289349		-0.012710272
F		-0.148050289		-4.027050773		-2.271836416
F		2.108761316		-1.794470614		-2.29466102
F		1.52462885		0.670349587		-2.242670438
F		-1.493458013		1.650066287		-2.152088796
F		-1.142174773		-1.290057543		-1.007372582
F		-0.109841685		-0.998658855		-3.22350978
F		0.492295777		0.378950901		-0.026533322
F		1.076428236		-2.085869293		-0.078523819
