12
-185.77729729
Al		0.28603413		-2.325184551		-1.850782605
Al		2.029913166		-0.542553046		-0.796887878
Al		-0.340898485		0.307859723		-1.788964998
F		3.616456488		-0.182927265		-0.012488122
F		-0.147829328		-4.026990701		-2.272333684
F		2.108852324		-1.794266818		-2.294740178
F		1.524571713		0.670515884		-2.24241425
F		-1.493578267		1.65003999		-2.151813677
F		-1.142169847		-1.290235257		-1.007509321
F		-0.109759164		-0.998451812		-3.22356594
F		0.492161045		0.378732441		-0.026357714
F		1.076441649		-2.086050254		-0.078683556
