12
-185.77729729
Al		0.286156283		-2.325151341		-1.851057509
Al		2.029857492		-0.542571718		-0.796765067
Al		-0.340964965		0.307845186		-1.788812904
F		3.616355781		-0.18296104		-0.012265972
F		-0.147608367		-4.026930629		-2.272830952
F		2.108943332		-1.794063022		-2.294819336
F		1.524514576		0.670682181		-2.242158062
F		-1.493698521		1.650013693		-2.151538558
F		-1.142164921		-1.290412971		-1.00764606
F		-0.109676643		-0.998244769		-3.2236221
F		0.492026313		0.378513981		-0.026182106
F		1.076455062		-2.086231215		-0.078843293
