12
-185.77729729
Al		0.286400589		-2.325084921		-1.851607317
Al		2.029746144		-0.542609062		-0.796519445
Al		-0.341097925		0.307816112		-1.788508716
F		3.616154367		-0.18302859		-0.011821672
F		-0.147166445		-4.026810485		-2.273825488
F		2.109125348		-1.79365543		-2.294977652
F		1.524400302		0.671014775		-2.241645686
F		-1.493939029		1.649961099		-2.15098832
F		-1.142155069		-1.290768399		-1.007919538
F		-0.109511601		-0.997830683		-3.22373442
F		0.491756849		0.378077061		-0.02583089
F		1.076481888		-2.086593137		-0.079162767
