12
-185.77729729
Al		0.287499966		-2.324786031		-1.854081453
Al		2.029245078		-0.54277711		-0.795414146
Al		-0.341696245		0.307685279		-1.78713987
F		3.615248004		-0.183332565		-0.009822322
F		-0.145177796		-4.026269837		-2.2783009
F		2.10994442		-1.791821266		-2.295690074
F		1.523886069		0.672511448		-2.239339994
F		-1.495021315		1.649724426		-2.148512249
F		-1.142110735		-1.292367825		-1.009150189
F		-0.108768912		-0.995967296		-3.22423986
F		0.490544261		0.376110921		-0.024250418
F		1.076602605		-2.088221786		-0.0806004
