      12
SCF Done            -167.04597318
Al            1.288905062         0.041629916         2.440520037
Al            1.383443600         1.064847400        -0.139464400
Al           -0.312824185         0.828470764        -2.325564673
F            -1.814036204        -0.202559344        -2.142897077
F             2.273021792        -0.346931354         0.818962113
F             0.045124984         1.825861654        -3.795392394
F            -0.361503226         1.738332881        -0.666920095
F             2.483363753         2.542838309        -0.265108644
F             1.394408623         0.084681128        -1.795424577
F             0.360660071         1.383572823         1.481941902
F             2.539456730         0.600535419         3.626713809
F            -0.122923241        -1.033310059         2.889154186
