      12
SCF Done            -186.99977867
Al            1.288904680         0.041629517         2.440520473
Al            1.383443600         1.064847400        -0.139464400
Al           -0.312824562         0.828470450        -2.325564373
F            -1.814036572        -0.202559653        -2.142896806
F             2.273021853        -0.346931353         0.818962052
F             0.045124139         1.825860890        -3.795392533
F            -0.361503210         1.738332953        -0.666919449
F             2.483363757         2.542838312        -0.265108643
F             1.394408439         0.084681005        -1.795424454
F             0.360659917         1.383572629         1.481941839
F             2.539455969         0.600534676         3.626714237
F            -0.122923725        -1.033310552         2.889152871
