12
Properties=species:S:1:pos:R:3:forces:R:3 energy=-185.48006640 pbc="F F F"
Al    0.16938417200000003    -2.269919811    -1.8693550609999998    0.251769    0.803207    0.209644
Al    1.9285727299999997    -0.6688754560000001    -0.8713070239999999    0.233682    0.345064    0.147983
Al    -0.36950200600000005    0.480935103    -1.7978858830000002    0.061648    0.398051    0.074768
F    3.358504088    -0.233626816    -0.160852623    0.482631    0.094083    0.233646
F    -0.17155157399999998    -3.978884493    -2.2255472359999997    0.23711    0.910776    0.215397
F    2.0893950379999997    -1.616309476    -1.990326189    -1.004135    -0.699773    -0.162077
F    1.801043495    0.556819939    -2.14002682    0.227454    0.316969    -0.568646
F    -1.682468622    1.881753731    -2.240702711    -0.261786    0.285692    -0.087548
F    -1.2008512859999998    -1.591917652    -0.8705591690000001    0.577954    -0.959013    -0.32462
F    -0.03293157399999999    -1.297364309    -3.401682981    0.217004    -1.050046    0.457633
F    0.783344196    0.30015259800000005    0.065537798    -0.307152    0.18214    0.589955
F    1.2745125339999999    -1.82182581    -0.224305373    -0.716181    -0.62715    -0.786136
