12
Properties=species:S:1:pos:R:3:forces:R:3 energy=-187.37791521 pbc="F F F"
Al    1.26244468    -0.023777483000000002    2.353700873    0.026464    -0.067644    -0.098152
Al    1.3774069999999998    1.283776    -0.10129200000000001    0.014403    0.01353    -0.002607
Al    -0.374293962    0.8376876499999999    -2.218472573    -0.04664    0.048692    0.101794
F    -1.9253193720000001    -0.075366453    -1.8242322059999998    -0.087851    -0.070916    0.016298
F    2.435055253    -0.09616255299999998    0.826216652    0.035842    -0.031771    0.014352
F    0.16747013900000002    1.34384769    -3.946914933    0.060755    0.077483    -0.152946
F    -0.10480621000000001    2.264853553    -0.951968049    -0.032294    0.035104    -0.014994
F    2.672043557    2.500024512    -0.335584443    -0.002727    -0.002562    0.000493
F    1.088175239    -0.111349195    -1.4118638540000001    0.080259    -0.086617    -0.01133
F    0.243681917    1.342102229    1.466795439    -0.079281    0.087536    0.011155
F    2.109565569    0.774850876    3.830793437    0.107605    0.080681    0.122486
F    0.22367587500000002    -1.5437083520000001    2.428141671    -0.076534    -0.083517    0.013452
