      12
SCF Done            -168.00968867
Al            1.306364462         0.021266916         2.431291037
Al            1.276784000         1.189243000        -0.083083000
Al           -0.342829585         0.863465364        -2.309703873
F            -1.778241404        -0.244306144        -2.161818077
F             2.171260192        -0.299001554         0.772430713
F             0.132962984         1.723416854        -3.841824794
F            -0.305284226         2.031530481        -0.814161095
F             2.587876553         2.420946509        -0.320355444
F             1.180669423        -0.024802072        -1.564915977
F             0.361602071         1.453227423         1.581767502
F             2.460534330         0.692580619         3.668433009
F             0.128242759        -1.326240859         2.756384786
