12
Properties=species:S:1:pos:R:3:forces:R:3 energy=-187.27329192 pbc="F F F"
Al    1.73017468    0.016142317000000017    2.3258850730000002    1.48678    1.096264    0.379577
Al    1.200457    1.288896    -0.142861    -0.025098    0.134425    -0.231976
Al    -0.645247562    0.7253052499999999    -2.167331773    -1.260812    -1.351999    0.527189
F    -1.833620172    -0.559535453    -1.878688606    0.600264    0.605526    -0.159133
F    2.4785372530000003    -0.089061953    0.5886714519999999    0.007717    -0.178459    0.080172
F    -0.41001986100000004    1.64211329    -3.767306333    0.173773    0.513759    -0.768247
F    -0.52796981    1.925623753    -0.708988049    0.069986    0.168113    0.105525
F    2.3137985569999997    2.7055445120000003    -0.46758844299999996    0.149422    0.141917    -0.024865
F    1.104410239    0.062930405    -1.6097962540000001    0.222894    0.006619    0.039635
F    0.38703611699999996    1.305234429    1.624594039    -0.129852    -0.005447    0.087919
F    2.683596969    0.999300076    3.576282437    -0.489888    -0.276675    -0.34391
F    0.690147675    -1.5128083520000002    2.745944071    -0.805184    -0.854045    0.308114
12
Properties=species:S:1:pos:R:3:forces:R:3 energy=-187.35959878 pbc="F F F"
Al    1.55496518    -0.012990182999999988    2.3664120730000002    0.735197    0.561775    0.144913
Al    1.216085    1.2550255    -0.1015845    -0.029752    0.050309    -0.110276
Al    -0.494811562    0.79261525    -2.241040273    -0.604675    -0.666616    0.294882
F    -1.859823172    -0.347943953    -2.013116106    0.344322    0.330888    -0.066252
F    2.452625753    -0.11103395299999999    0.6901689520000001    -0.014533    -0.073221    0.049285
F    -0.084603361    1.63186279    -3.828458333    0.098298    0.24664    -0.3483
F    -0.41685680999999997    2.015658253    -0.798852049    0.05099    0.06375    0.048506
F    2.387441057    2.627731512    -0.36503794300000003    0.040914    0.033973    0.001556
F    1.115820239    -0.008550595    -1.535827754    0.086837    0.018399    0.024752
F    0.262796617    1.2679089289999999    1.5871960390000002    -0.046896    -0.028423    0.045247
F    2.484826969    0.972138576    3.6646154369999997    -0.269859    -0.141895    -0.20504
F    0.554590175    -1.573562852    2.692787571    -0.390841    -0.395578    0.120727
12
Properties=species:S:1:pos:R:3:forces:R:3 energy=-187.38518821 pbc="F F F"
Al    1.2233016799999998    0.118142317    2.4751990729999997    0.0    0.0    0.0
Al    1.276784    1.189243    -0.083083    0.0    0.0    -0.0
Al    -0.259766562    0.7665902499999999    -2.353611773    0.0    0.0    -0.0
F    -1.401343172    -0.6838784529999999    -2.361052606    -0.0    -0.0    0.0
F    1.7929592530000003    -0.48490195299999994    0.714683452    0.0    -0.0    0.0
F    -0.158867861    2.06377529    -3.687560333    -0.0    -0.0    0.0
F    -0.49346381000000006    1.685251753    -0.653896049    -0.0    0.0    -0.0
F    2.587876557    2.420946512    -0.320355443    0.0    0.0    -0.0
F    1.468075239    0.205749405    -1.777633254    -0.0    -0.0    -0.0
F    0.640675117    1.754854429    1.691967039    -0.0    -0.0    0.0
F    2.7523649690000003    0.352223076    3.5141674370000002    -0.0    -0.0    0.0
F    -0.24865632499999998    -0.886669352    2.9556190709999997    -0.0    -0.0    -0.0
12
Properties=species:S:1:pos:R:3:forces:R:3 energy=-187.35959255 pbc="F F F"
Al    1.2184121799999998    -0.137820183    2.403869073    -0.731078    -0.599431    -0.055289
Al    1.343741    1.1291944999999999    -0.0655095    0.06856    -0.01316    0.103728
Al    -0.355561562    1.12378225    -2.285183273    0.550639    0.657844    -0.375967
F    -1.991295172    0.20559904699999998    -2.131185106    -0.427443    -0.374577    0.027107
F    2.149259753    -0.410037953    0.779083952    0.052833    0.037694    -0.063725
F    0.402628639    1.72783379    -3.8918203329999996    -0.111801    -0.217984    0.273988
F    -0.09190681000000003    2.309572253    -0.819027049    -0.080628    -0.020204    -0.035044
F    2.791716057    2.217122512    -0.275959943    0.034742    0.037325    -0.015177
F    0.9935452389999999    -0.10535659500000001    -1.519731754    -0.034842    -0.054547    -0.02915
F    0.37183061700000003    1.382778929    1.563950039    0.015243    0.083674    -0.045121
F    2.359602969    0.47752657600000004    3.7124764370000003    0.311855    0.139365    0.274291
F    -0.00557282499999999    -1.426763852    2.640670571    0.351921    0.324002    -0.059642
12
Properties=species:S:1:pos:R:3:forces:R:3 energy=-187.24277852 pbc="F F F"
Al    1.1801506800000001    0.084564317    2.374342073    -0.388269    0.251669    -0.287204
Al    1.2834809999999999    1.195529    -0.08429600000000001    0.091641    0.086093    -0.016583
Al    -0.275553562    0.74479925    -2.242088773    0.283997    -0.349643    0.306096
F    -1.185160172    -0.8869464530000001    -2.293606606    -0.414848    -0.558814    0.034494
F    2.055578253    -0.416851953    0.7151674520000001    0.246274    -0.442345    -0.245794
F    -0.12146686100000001    2.2814492900000003    -3.353231333    0.06318    0.797337    -0.74719
F    -0.41518581    1.937445753    -0.716069049    -0.376597    0.319913    0.269378
F    2.590939557    2.423827512    -0.320907443    -0.019978    -0.018768    0.003616
F    1.333671239    -0.10416359500000003    -1.563166254    0.286875    -0.184105    -0.225091
F    0.29017911700000004    1.609226429    1.5652480389999999    -0.125383    0.335819    0.195862
F    2.904373969    0.31249107600000003    3.1455594369999997    0.926149    0.132103    0.568129
F    -0.451055325    -0.6706403519999999    2.885680071    -0.573042    -0.369259    0.144286
12
Properties=species:S:1:pos:R:3:forces:R:3 energy=-187.37114305 pbc="F F F"
Al    1.38234268    0.21383881700000001    2.427147573    -0.128648    0.093413    -0.062543
Al    1.148771    1.333623    -0.040953    0.02256    0.021195    -0.004082
Al    -0.429087062    0.67874225    -2.321613273    0.09777    -0.122428    0.068142
F    -1.6772866720000001    -0.6298644529999999    -2.6051461060000003    -0.11822    -0.131932    0.015489
F    1.9580387529999999    -0.266177953    0.6937114520000001    0.088687    -0.11735    -0.087346
F    -0.035573861    1.77756129    -3.750562833    0.032521    0.192312    -0.204842
F    -0.58487681    1.784079753    -0.718599549    -0.094692    0.111709    0.088432
F    2.934565557    2.154472512    0.212049557    -0.004338    -0.004076    0.000785
F    1.2587822389999999    0.179791905    -1.599104754    0.040429    -0.04143    -0.061198
F    0.509791117    1.774379429    1.741517039    -0.027289    0.053774    0.058818
F    2.807328469    0.440758076    3.535996437    0.228793    0.053186    0.157541
F    -0.066355825    -0.969052352    2.535004571    -0.137574    -0.108373    0.030802
12
Properties=species:S:1:pos:R:3:forces:R:3 energy=-187.38518821 pbc="F F F"
Al    1.29308668    0.036752317    2.438310073    0.0    0.0    0.0
Al    1.45455    0.981917    -0.177052    0.0    0.0    -0.0
Al    -0.308642562    0.8235932499999999    -2.3277747730000002    0.0    0.0    -0.0
F    -1.909690172    -0.09100045300000004    -2.092333606    -0.0    -0.0    0.0
F    2.4129202530000002    -0.34347495299999997    0.860982452    0.0    -0.0    0.0
F    0.042152139    1.8293272900000002    -3.793821333    -0.0    -0.0    0.0
F    -0.36313881000000003    1.6088257529999999    -0.599285049    -0.0    0.0    -0.0
F    2.413688557    2.624099512    -0.22827744300000002    0.0    0.0    -0.0
F    1.4821572390000002    0.113755405    -1.9085792540000002    -0.0    -0.0    -0.0
F    0.30687511700000003    1.279683429    1.394401039    -0.0    -0.0    0.0
F    2.5364839690000003    0.604001076    3.628285437    -0.0    -0.0    0.0
F    -0.21857732500000002    -0.9217513519999999    2.939716071    -0.0    -0.0    -0.0
12
Properties=species:S:1:pos:R:3:forces:R:3 energy=-187.37114305 pbc="F F F"
Al    1.44581968    0.139804817    2.393592573    0.026306    -0.08734    -0.144467
Al    1.39022    1.052024    -0.168586    0.022559    0.021192    -0.004084
Al    -0.48427106200000003    0.7431012499999999    -2.2924422730000003    -0.057217    0.058304    0.15005
F    -2.056669672    -0.187395453    -2.404598106    -0.139013    -0.107653    0.026488
F    2.338769753    -0.358731953    0.7746964519999999    0.064466    -0.053235    0.010316
F    0.009756138999999997    1.72468929    -3.774525833    0.095777    0.118532    -0.238271
F    -0.22678481    1.9123937529999997    -0.813817549    -0.051322    0.065583    -0.012695
F    2.649651557    2.486764512    0.362659557    -0.004338    -0.004076    0.000785
F    1.096758239    -0.177191095    -1.607530754    0.111187    -0.128401    -0.020396
F    0.466882117    1.472938429    1.4819560390000002    -0.11719    0.122762    0.021484
F    2.435759469    0.8741120760000001    3.7324124370000002    0.165548    0.126966    0.190988
F    0.09268717499999998    -1.154541352    2.450931571    -0.116761    -0.132635    0.019801
