12
-186.35103317
Al		-1.700654564		2.559355917		-1.230231338
Al		-0.531509847		0.000456727		-2.347271226
Al		-2.200847372		-0.339195145		-0.515492622
F		-0.757448703		3.685700257		-0.161819521
F		-3.017223004		3.176329037		-2.315646916
F		-1.377286532		-1.675649613		-1.720802182
F		-2.526131955		1.449752439		0.053492323
F		-3.247072827		-1.30287938		0.60217856
F		0.621105902		-0.515840126		-3.642407655
F		-0.335171238		1.895536409		-2.350667946
F		-2.454915868		0.474410114		-2.304199797
F		-0.302583922		0.158860858		-0.401245161
