12
-186.35103317
Al		-1.700783939		2.559305805		-1.230358526
Al		-0.53286414		8.3434e-05		-2.345848056
Al		-2.199536846		-0.339026242		-0.516993579
F		-0.75759471		3.685498171		-0.161990053
F		-3.01738351		3.176661776		-2.315731489
F		-1.377331928		-1.681504797		-1.721929234
F		-2.52745563		1.4505744		0.055658965
F		-3.2451819		-1.301050886		0.600166124
F		0.61901441		-0.51482192		-3.64005015
F		-0.333347343		1.896998792		-2.351955162
F		-2.455129267		0.474751781		-2.304330918
F		-0.302111953		0.15941596		-0.400712118
