12
-186.35103317
Al		-1.702077689		2.558804685		-1.231630406
Al		-0.54640707		-0.003649496		-2.331616356
Al		-2.186431586		-0.337337212		-0.532003149
F		-0.75905478		3.683477311		-0.163695373
F		-3.01898857		3.179989166		-2.316577219
F		-1.377785888		-1.740056637		-1.733199754
F		-2.54069238		1.45879401		0.077325385
F		-3.22627263		-1.282765946		0.580041764
F		0.59809949		-0.50463986		-3.6164751
F		-0.315108393		1.911622622		-2.364827322
F		-2.457263257		0.478168451		-2.305642128
F		-0.297392263		0.16496698		-0.395381688
