12
-186.35103317
Al		-1.700798314		2.559300237		-1.230372658
Al		-0.533014617		4.1957e-05		-2.345689926
Al		-2.199391232		-0.339007475		-0.517160352
F		-0.757610933		3.685475717		-0.162009001
F		-3.017401344		3.176698747		-2.315740886
F		-1.377336972		-1.682155373		-1.722054462
F		-2.527602705		1.450665729		0.055899703
F		-3.244971797		-1.30084772		0.59994252
F		0.618782022		-0.514708786		-3.639788205
F		-0.333144688		1.897161279		-2.352098186
F		-2.455152978		0.474789744		-2.304345487
F		-0.302059512		0.159477638		-0.400652891
