12
-186.35103317
Al		-1.700855814		2.559277965		-1.230429186
Al		-0.533616525		-0.000123951		-2.345057406
Al		-2.198808776		-0.338932407		-0.517827444
F		-0.757675825		3.685385901		-0.162084793
F		-3.01747268		3.176846631		-2.315778474
F		-1.377357148		-1.684757677		-1.722555374
F		-2.528191005		1.451031045		0.056862655
F		-3.244131385		-1.300035056		0.599048104
F		0.61785247		-0.51425625		-3.638740425
F		-0.332334068		1.897811227		-2.352670282
F		-2.455247822		0.474941596		-2.304403763
F		-0.301849748		0.15972435		-0.400415983
