12
-186.35103317
Al		-1.700870189		2.559272397		-1.230443318
Al		-0.533767002		-0.000165428		-2.344899276
Al		-2.198663162		-0.33891364		-0.517994217
F		-0.757692048		3.685363447		-0.162103741
F		-3.017490514		3.176883602		-2.315787871
F		-1.377362192		-1.685408253		-1.722680602
F		-2.52833808		1.451122374		0.057103393
F		-3.243921282		-1.29983189		0.5988245
F		0.617620082		-0.514143116		-3.63847848
F		-0.332131413		1.897973714		-2.352813306
F		-2.455271533		0.474979559		-2.304418332
F		-0.301797307		0.159786028		-0.400356756
