12
-186.35103317
Al		-1.700913314		2.559255693		-1.230485714
Al		-0.534218433		-0.000289859		-2.344424886
Al		-2.19822632		-0.338857339		-0.518494536
F		-0.757740717		3.685296085		-0.162160585
F		-3.017544016		3.176994515		-2.315816062
F		-1.377377324		-1.687359981		-1.723056286
F		-2.528779305		1.451396361		0.057825607
F		-3.243290973		-1.299222392		0.598153688
F		0.616922918		-0.513803714		-3.637692645
F		-0.331523448		1.898461175		-2.353242378
F		-2.455342666		0.475093448		-2.304462039
F		-0.301639984		0.159971062		-0.400179075
