12
-186.35103317
Al		-1.700942064		2.559244557		-1.230513978
Al		-0.534519387		-0.000372813		-2.344108626
Al		-2.197935092		-0.338819805		-0.518828082
F		-0.757773163		3.685251177		-0.162198481
F		-3.017579684		3.177068457		-2.315834856
F		-1.377387412		-1.688661133		-1.723306742
F		-2.529073455		1.451579019		0.058307083
F		-3.242870767		-1.29881606		0.59770648
F		0.616458142		-0.513577446		-3.637168755
F		-0.331118138		1.898786149		-2.353528426
F		-2.455390088		0.475169374		-2.304491177
F		-0.301535102		0.160094418		-0.400060621
