12
-186.35103317
Al		-1.701157689		2.559161037		-1.230725958
Al		-0.536776542		-0.000994968		-2.341736676
Al		-2.195750882		-0.3385383		-0.521329677
F		-0.758016508		3.684914367		-0.162482701
F		-3.017847194		3.177623022		-2.315975811
F		-1.377463072		-1.698419773		-1.725185162
F		-2.53127958		1.452948954		0.061918153
F		-3.239719222		-1.29576857		0.59435242
F		0.612972322		-0.511880436		-3.63323958
F		-0.328078313		1.901223454		-2.355673786
F		-2.455745753		0.475738819		-2.304709712
F		-0.300748487		0.161019588		-0.399172216
