12
-186.35103317
Al		-1.701172064		2.559155469		-1.23074009
Al		-0.536927019		-0.001036445		-2.341578546
Al		-2.195605268		-0.338519533		-0.52149645
F		-0.758032731		3.684891913		-0.162501649
F		-3.017865028		3.177659993		-2.315985208
F		-1.377468116		-1.699070349		-1.72531039
F		-2.531426655		1.453040283		0.062158891
F		-3.239509119		-1.295565404		0.594128816
F		0.612739934		-0.511767302		-3.632977635
F		-0.327875658		1.901385941		-2.35581681
F		-2.455769464		0.475776782		-2.304724281
F		-0.300696046		0.161081266		-0.399112989
