12
-186.35103317
Al		-1.701243939		2.559127629		-1.23081075
Al		-0.537679404		-0.00124383		-2.340787896
Al		-2.194877198		-0.338425698		-0.522330315
F		-0.758113846		3.684779643		-0.162596389
F		-3.017954198		3.177844848		-2.316032193
F		-1.377493336		-1.702323229		-1.72593653
F		-2.53216203		1.453496928		0.063362581
F		-3.238458604		-1.294549574		0.593010796
F		0.611577994		-0.511201632		-3.63166791
F		-0.326862383		1.902198376		-2.35653193
F		-2.455888019		0.475966597		-2.304797126
F		-0.300433841		0.161389656		-0.398816854
