12
-186.35103317
Al		-1.701258314		2.559122061		-1.230824882
Al		-0.537829881		-0.001285307		-2.340629766
Al		-2.194731584		-0.338406931		-0.522497088
F		-0.758130069		3.684757189		-0.162615337
F		-3.017972032		3.177881819		-2.31604159
F		-1.37749838		-1.702973805		-1.726061758
F		-2.532309105		1.453588257		0.063603319
F		-3.238248501		-1.294346408		0.592787192
F		0.611345606		-0.511088498		-3.631405965
F		-0.326659728		1.902360863		-2.356674954
F		-2.45591173		0.47600456		-2.304811695
F		-0.3003814		0.161451334		-0.398757627
