12
-186.35103317
Al		-1.701287064		2.559110925		-1.230853146
Al		-0.538130835		-0.001368261		-2.340313506
Al		-2.194440356		-0.338369397		-0.522830634
F		-0.758162515		3.684712281		-0.162653233
F		-3.0180077		3.177955761		-2.316060384
F		-1.377508468		-1.704274957		-1.726312214
F		-2.532603255		1.453770915		0.064084795
F		-3.237828295		-1.293940076		0.592339984
F		0.61088083		-0.51086223		-3.630882075
F		-0.326254418		1.902685837		-2.356961002
F		-2.455959152		0.476080486		-2.304840833
F		-0.300276518		0.16157469		-0.398639173
