12
-186.35103317
Al		-1.701330189		2.559094221		-1.230895542
Al		-0.538582266		-0.001492692		-2.339839116
Al		-2.194003514		-0.338313096		-0.523330953
F		-0.758211184		3.684644919		-0.162710077
F		-3.018061202		3.178066674		-2.316088575
F		-1.3775236		-1.706226685		-1.726687898
F		-2.53304448		1.454044902		0.064807009
F		-3.237197986		-1.293330578		0.591669172
F		0.610183666		-0.510522828		-3.63009624
F		-0.325646453		1.903173298		-2.357390074
F		-2.456030285		0.476194375		-2.30488454
F		-0.300119195		0.161759724		-0.398461492
