12
-186.35103317
Al		-1.701373314		2.559077517		-1.230937938
Al		-0.539033697		-0.001617123		-2.339364726
Al		-2.193566672		-0.338256795		-0.523831272
F		-0.758259853		3.684577557		-0.162766921
F		-3.018114704		3.178177587		-2.316116766
F		-1.377538732		-1.708178413		-1.727063582
F		-2.533485705		1.454318889		0.065529223
F		-3.236567677		-1.29272108		0.59099836
F		0.609486502		-0.510183426		-3.629310405
F		-0.325038488		1.903660759		-2.357819146
F		-2.456101418		0.476308264		-2.304928247
F		-0.299961872		0.161944758		-0.398283811
