12
-186.35103317
Al		-1.701430814		2.559055245		-1.230994466
Al		-0.539635605		-0.001783031		-2.338732206
Al		-2.192984216		-0.338181727		-0.524498364
F		-0.758324745		3.684487741		-0.162842713
F		-3.01818604		3.178325471		-2.316154354
F		-1.377558908		-1.710780717		-1.727564494
F		-2.534074005		1.454684205		0.066492175
F		-3.235727265		-1.291908416		0.590103944
F		0.60855695		-0.50973089		-3.628262625
F		-0.324227868		1.904310707		-2.358391242
F		-2.456196262		0.476460116		-2.304986523
F		-0.299752108		0.16219147		-0.398046903
