12
-186.35103317
Al		-1.701445189		2.559049677		-1.231008598
Al		-0.539786082		-0.001824508		-2.338574076
Al		-2.192838602		-0.33816296		-0.524665137
F		-0.758340968		3.684465287		-0.162861661
F		-3.018203874		3.178362442		-2.316163751
F		-1.377563952		-1.711431293		-1.727689722
F		-2.53422108		1.454775534		0.066732913
F		-3.235517162		-1.29170525		0.58988034
F		0.608324562		-0.509617756		-3.62800068
F		-0.324025213		1.904473194		-2.358534266
F		-2.456219973		0.476498079		-2.305001092
F		-0.299699667		0.162253148		-0.397987676
