12
-186.35103317
Al		-1.701459564		2.559044109		-1.23102273
Al		-0.539936559		-0.001865985		-2.338415946
Al		-2.192692988		-0.338144193		-0.52483191
F		-0.758357191		3.684442833		-0.162880609
F		-3.018221708		3.178399413		-2.316173148
F		-1.377568996		-1.712081869		-1.72781495
F		-2.534368155		1.454866863		0.066973651
F		-3.235307059		-1.291502084		0.589656736
F		0.608092174		-0.509504622		-3.627738735
F		-0.323822558		1.904635681		-2.35867729
F		-2.456243684		0.476536042		-2.305015661
F		-0.299647226		0.162314826		-0.397928449
