12
-186.35103317
Al		-1.701502689		2.559027405		-1.231065126
Al		-0.54038799		-0.001990416		-2.337941556
Al		-2.192256146		-0.338087892		-0.525332229
F		-0.75840586		3.684375471		-0.162937453
F		-3.01827521		3.178510326		-2.316201339
F		-1.377584128		-1.714033597		-1.728190634
F		-2.53480938		1.45514085		0.067695865
F		-3.23467675		-1.290892586		0.588985924
F		0.60739501		-0.50916522		-3.6269529
F		-0.323214593		1.905123142		-2.359106362
F		-2.456314817		0.476649931		-2.305059368
F		-0.299489903		0.16249986		-0.397750768
