12
-186.35103317
Al		-1.701517064		2.559021837		-1.231079258
Al		-0.540538467		-0.002031893		-2.337783426
Al		-2.192110532		-0.338069125		-0.525499002
F		-0.758422083		3.684353017		-0.162956401
F		-3.018293044		3.178547297		-2.316210736
F		-1.377589172		-1.714684173		-1.728315862
F		-2.534956455		1.455232179		0.067936603
F		-3.234466647		-1.29068942		0.58876232
F		0.607162622		-0.509052086		-3.626690955
F		-0.323011938		1.905285629		-2.359249386
F		-2.456338528		0.476687894		-2.305073937
F		-0.299437462		0.162561538		-0.397691541
