12
-186.35103317
Al		-1.701531439		2.559016269		-1.23109339
Al		-0.540688944		-0.00207337		-2.337625296
Al		-2.191964918		-0.338050358		-0.525665775
F		-0.758438306		3.684330563		-0.162975349
F		-3.018310878		3.178584268		-2.316220133
F		-1.377594216		-1.715334749		-1.72844109
F		-2.53510353		1.455323508		0.068177341
F		-3.234256544		-1.290486254		0.588538716
F		0.606930234		-0.508938952		-3.62642901
F		-0.322809283		1.905448116		-2.35939241
F		-2.456362239		0.476725857		-2.305088506
F		-0.299385021		0.162623216		-0.397632314
