12
-186.35103317
Al		-1.701603314		2.558988429		-1.23116405
Al		-0.541441329		-0.002280755		-2.336834646
Al		-2.191236848		-0.337956523		-0.52649964
F		-0.758519421		3.684218293		-0.163070089
F		-3.018400048		3.178769123		-2.316267118
F		-1.377619436		-1.718587629		-1.72906723
F		-2.535838905		1.455780153		0.069381031
F		-3.233206029		-1.289470424		0.587420696
F		0.605768294		-0.508373282		-3.625119285
F		-0.321796008		1.906260551		-2.36010753
F		-2.456480794		0.476915672		-2.305161351
F		-0.299122816		0.162931606		-0.397336179
