12
-186.35103317
Al		-1.701646439		2.558971725		-1.231206446
Al		-0.54189276		-0.002405186		-2.336360256
Al		-2.190800006		-0.337900222		-0.526999959
F		-0.75856809		3.684150931		-0.163126933
F		-3.01845355		3.178880036		-2.316295309
F		-1.377634568		-1.720539357		-1.729442914
F		-2.53628013		1.45605414		0.070103245
F		-3.23257572		-1.288860926		0.586749884
F		0.60507113		-0.50803388		-3.62433345
F		-0.321188043		1.906748012		-2.360536602
F		-2.456551927		0.477029561		-2.305205058
F		-0.298965493		0.16311664		-0.397158498
