12
-186.35103317
Al		-1.701689564		2.558955021		-1.231248842
Al		-0.542344191		-0.002529617		-2.335885866
Al		-2.190363164		-0.337843921		-0.527500278
F		-0.758616759		3.684083569		-0.163183777
F		-3.018507052		3.178990949		-2.3163235
F		-1.3776497		-1.722491085		-1.729818598
F		-2.536721355		1.456328127		0.070825459
F		-3.231945411		-1.288251428		0.586079072
F		0.604373966		-0.507694478		-3.623547615
F		-0.320580078		1.907235473		-2.360965674
F		-2.45662306		0.47714345		-2.305248765
F		-0.29880817		0.163301674		-0.396980817
