12
-186.35103317
Al		-1.701818939		2.558904909		-1.23137603
Al		-0.543698484		-0.00290291		-2.334462696
Al		-2.189052638		-0.337675018		-0.529001235
F		-0.758762766		3.683881483		-0.163354309
F		-3.018667558		3.179323688		-2.316408073
F		-1.377695096		-1.728346269		-1.73094565
F		-2.53804503		1.457150088		0.072992101
F		-3.230054484		-1.286422934		0.584066636
F		0.602282474		-0.506676272		-3.62119011
F		-0.318756183		1.908697856		-2.36225289
F		-2.456836459		0.477485117		-2.305379886
F		-0.298336201		0.163856776		-0.396447774
