12
-186.35103317
Al		-1.701876439		2.558882637		-1.231432558
Al		-0.544300392		-0.003068818		-2.333830176
Al		-2.188470182		-0.33759995		-0.529668327
F		-0.758827658		3.683791667		-0.163430101
F		-3.018738894		3.179471572		-2.316445661
F		-1.377715272		-1.730948573		-1.731446562
F		-2.53863333		1.457515404		0.073955053
F		-3.229214072		-1.28561027		0.58317222
F		0.601352922		-0.506223736		-3.62014233
F		-0.317945563		1.909347804		-2.362824986
F		-2.456931303		0.477636969		-2.305438162
F		-0.298126437		0.164103488		-0.396210866
