12
-186.35103317
Al		-1.700769564		2.559311373		-1.230344394
Al		-0.532713663		0.000124911		-2.346006186
Al		-2.19968246		-0.339045009		-0.516826806
F		-0.757578487		3.685520625		-0.161971105
F		-3.017365676		3.176624805		-2.315722092
F		-1.377326884		-1.680854221		-1.721804006
F		-2.527308555		1.450483071		0.055418227
F		-3.245392003		-1.301254052		0.600389728
F		0.619246798		-0.514935054		-3.640312095
F		-0.333549998		1.896836305		-2.351812138
F		-2.455105556		0.474713818		-2.304316349
F		-0.302164394		0.159354282		-0.400771345
