12
-186.35103317
Al		-1.701948314		2.558854797		-1.231503218
Al		-0.545052777		-0.003276203		-2.333039526
Al		-2.187742112		-0.337506115		-0.530502192
F		-0.758908773		3.683679397		-0.163524841
F		-3.018828064		3.179656427		-2.316492646
F		-1.377740492		-1.734201453		-1.732072702
F		-2.539368705		1.457972049		0.075158743
F		-3.228163557		-1.28459444		0.5820542
F		0.600190982		-0.505658066		-3.618832605
F		-0.316932288		1.910160239		-2.363540106
F		-2.457049858		0.477826784		-2.305511007
F		-0.297864232		0.164411878		-0.395914731
