12
-186.35103317
Al		-1.700496439		2.559417165		-1.230075886
Al		-0.5298546		0.000912974		-2.349010656
Al		-2.202449126		-0.339401582		-0.513658119
F		-0.75727025		3.685947251		-0.161611093
F		-3.01702683		3.175922356		-2.315543549
F		-1.377231048		-1.668493277		-1.719424674
F		-2.52451413		1.44874782		0.050844205
F		-3.24938396		-1.305114206		0.604638204
F		0.62366217		-0.5170846		-3.64528905
F		-0.337400443		1.893749052		-2.349094682
F		-2.454655047		0.473992521		-2.304039538
F		-0.303160773		0.1581824		-0.401896658
