12
-186.35103317
Al		-1.700467689		2.559428301		-1.230047622
Al		-0.529553646		0.000995928		-2.349326916
Al		-2.202740354		-0.339439116		-0.513324573
F		-0.757237804		3.685992159		-0.161573197
F		-3.016991162		3.175848414		-2.315524755
F		-1.37722096		-1.667192125		-1.719174218
F		-2.52421998		1.448565162		0.050362729
F		-3.249804166		-1.305520538		0.605085412
F		0.624126946		-0.517310868		-3.64581294
F		-0.337805753		1.893424078		-2.348808634
F		-2.454607625		0.473916595		-2.3040104
F		-0.303265655		0.158059044		-0.402015112
