12
-186.35103317
Al		-1.700453314		2.559433869		-1.23003349
Al		-0.529403169		0.001037405		-2.349485046
Al		-2.202885968		-0.339457883		-0.5131578
F		-0.757221581		3.686014613		-0.161554249
F		-3.016973328		3.175811443		-2.315515358
F		-1.377215916		-1.666541549		-1.71904899
F		-2.524072905		1.448473833		0.050121991
F		-3.250014269		-1.305723704		0.605309016
F		0.624359334		-0.517424002		-3.646074885
F		-0.338008408		1.893261591		-2.34866561
F		-2.454583914		0.473878632		-2.303995831
F		-0.303318096		0.157997366		-0.402074339
