12
-186.35103317
Al		-1.700410189		2.559450573		-1.229991094
Al		-0.528951738		0.001161836		-2.349959436
Al		-2.20332281		-0.339514184		-0.512657481
F		-0.757172912		3.686081975		-0.161497405
F		-3.016919826		3.17570053		-2.315487167
F		-1.377200784		-1.664589821		-1.718673306
F		-2.52363168		1.448199846		0.049399777
F		-3.250644578		-1.306333202		0.605979828
F		0.625056498		-0.517763404		-3.64686072
F		-0.338616373		1.89277413		-2.348236538
F		-2.454512781		0.473764743		-2.303952124
F		-0.303475419		0.157812332		-0.40225202
