12
-186.35103317
Al		-1.700381439		2.559461709		-1.22996283
Al		-0.528650784		0.00124479		-2.350275696
Al		-2.203614038		-0.339551718		-0.512323935
F		-0.757140466		3.686126883		-0.161459509
F		-3.016884158		3.175626588		-2.315468373
F		-1.377190696		-1.663288669		-1.71842285
F		-2.52333753		1.448017188		0.048918301
F		-3.251064784		-1.306739534		0.606427036
F		0.625521274		-0.517989672		-3.64738461
F		-0.339021683		1.892449156		-2.34795049
F		-2.454465359		0.473688817		-2.303922986
F		-0.303580301		0.157688976		-0.402370474
