12
-186.35103317
Al		-1.700338314		2.559478413		-1.229920434
Al		-0.528199353		0.001369221		-2.350750086
Al		-2.20405088		-0.339608019		-0.511823616
F		-0.757091797		3.686194245		-0.161402665
F		-3.016830656		3.175515675		-2.315440182
F		-1.377175564		-1.661336941		-1.718047166
F		-2.522896305		1.447743201		0.048196087
F		-3.251695093		-1.307349032		0.607097848
F		0.626218438		-0.518329074		-3.648170445
F		-0.339629648		1.891961695		-2.347521418
F		-2.454394226		0.473574928		-2.303879279
F		-0.303737624		0.157503942		-0.402548155
