12
-186.35103317
Al		-1.700223314		2.559522957		-1.229807378
Al		-0.526995537		0.001701037		-2.352015126
Al		-2.205215792		-0.339758155		-0.510489432
F		-0.756962013		3.686373877		-0.161251081
F		-3.016687984		3.175219907		-2.315365006
F		-1.377135212		-1.656132333		-1.717045342
F		-2.521719705		1.447012569		0.046270183
F		-3.253375917		-1.30897436		0.60888668
F		0.628077542		-0.519234146		-3.650266005
F		-0.341250888		1.890661799		-2.346377226
F		-2.454204538		0.473271224		-2.303762727
F		-0.304157152		0.157010518		-0.403021971
