12
-186.35103317
Al		-1.700208939		2.559528525		-1.229793246
Al		-0.52684506		0.001742514		-2.352173256
Al		-2.205361406		-0.339776922		-0.510322659
F		-0.75694579		3.686396331		-0.161232133
F		-3.01667015		3.175182936		-2.315355609
F		-1.377130168		-1.655481757		-1.716920114
F		-2.52157263		1.44692124		0.046029445
F		-3.25358602		-1.309177526		0.609110284
F		0.62830993		-0.51934728		-3.65052795
F		-0.341453543		1.890499312		-2.346234202
F		-2.454180827		0.473233261		-2.303748158
F		-0.304209593		0.15694884		-0.403081198
