12
-186.35103317
Al		-1.700180189		2.559539661		-1.229764982
Al		-0.526544106		0.001825468		-2.352489516
Al		-2.205652634		-0.339814456		-0.509989113
F		-0.756913344		3.686441239		-0.161194237
F		-3.016634482		3.175108994		-2.315336815
F		-1.37712008		-1.654180605		-1.716669658
F		-2.52127848		1.446738582		0.045547969
F		-3.254006226		-1.309583858		0.609557492
F		0.628774706		-0.519573548		-3.65105184
F		-0.341858853		1.890174338		-2.345948154
F		-2.454133405		0.473157335		-2.30371902
F		-0.304314475		0.156825484		-0.403199652
