12
-186.35103317
Al		-1.700165814		2.559545229		-1.22975085
Al		-0.526393629		0.001866945		-2.352647646
Al		-2.205798248		-0.339833223		-0.50982234
F		-0.756897121		3.686463693		-0.161175289
F		-3.016616648		3.175072023		-2.315327418
F		-1.377115036		-1.653530029		-1.71654443
F		-2.521131405		1.446647253		0.045307231
F		-3.254216329		-1.309787024		0.609781096
F		0.629007094		-0.519686682		-3.651313785
F		-0.342061508		1.890011851		-2.34580513
F		-2.454109694		0.473119372		-2.303704451
F		-0.304366916		0.156763806		-0.403258879
