12
-186.35103317
Al		-1.700108314		2.559567501		-1.229694322
Al		-0.525791721		0.002032853		-2.353280166
Al		-2.206380704		-0.339908291		-0.509155248
F		-0.756832229		3.686553509		-0.161099497
F		-3.016545312		3.174924139		-2.31528983
F		-1.37709486		-1.650927725		-1.716043518
F		-2.520543105		1.446281937		0.044344279
F		-3.255056741		-1.310599688		0.610675512
F		0.629936646		-0.520139218		-3.652361565
F		-0.342872128		1.889361903		-2.345233034
F		-2.45401485		0.47296752		-2.303646175
F		-0.30457668		0.156517094		-0.403495787
