12
-186.35103317
Al		-1.700093939		2.559573069		-1.22968019
Al		-0.525641244		0.00207433		-2.353438296
Al		-2.206526318		-0.339927058		-0.508988475
F		-0.756816006		3.686575963		-0.161080549
F		-3.016527478		3.174887168		-2.315280433
F		-1.377089816		-1.650277149		-1.71591829
F		-2.52039603		1.446190608		0.044103541
F		-3.255266844		-1.310802854		0.610899116
F		0.630169034		-0.520252352		-3.65262351
F		-0.343074783		1.889199416		-2.34509001
F		-2.453991139		0.472929557		-2.303631606
F		-0.304629121		0.156455416		-0.403555014
