12
-186.35103317
Al		-1.700036439		2.559595341		-1.229623662
Al		-0.525039336		0.002240238		-2.354070816
Al		-2.207108774		-0.340002126		-0.508321383
F		-0.756751114		3.686665779		-0.161004757
F		-3.016456142		3.174739284		-2.315242845
F		-1.37706964		-1.647674845		-1.715417378
F		-2.51980773		1.445825292		0.043140589
F		-3.256107256		-1.311615518		0.611793532
F		0.631098586		-0.520704888		-3.65367129
F		-0.343885403		1.888549468		-2.344517914
F		-2.453896295		0.472777705		-2.30357333
F		-0.304838885		0.156208704		-0.403791922
