12
-186.35103317
Al		-1.699993314		2.559612045		-1.229581266
Al		-0.524587905		0.002364669		-2.354545206
Al		-2.207545616		-0.340058427		-0.507821064
F		-0.756702445		3.686733141		-0.160947913
F		-3.01640264		3.174628371		-2.315214654
F		-1.377054508		-1.645723117		-1.715041694
F		-2.519366505		1.445551305		0.042418375
F		-3.256737565		-1.312225016		0.612464344
F		0.63179575		-0.52104429		-3.654457125
F		-0.344493368		1.888062007		-2.344088842
F		-2.453825162		0.472663816		-2.303529623
F		-0.304996208		0.15602367		-0.403969603
