12
-186.35103317
Al		-1.699964564		2.559623181		-1.229553002
Al		-0.524286951		0.002447623		-2.354861466
Al		-2.207836844		-0.340095961		-0.507487518
F		-0.756669999		3.686778049		-0.160910017
F		-3.016366972		3.174554429		-2.31519586
F		-1.37704442		-1.644421965		-1.714791238
F		-2.519072355		1.445368647		0.041936899
F		-3.257157771		-1.312631348		0.612911552
F		0.632260526		-0.521270558		-3.654981015
F		-0.344898678		1.887737033		-2.343802794
F		-2.45377774		0.47258789		-2.303500485
F		-0.30510109		0.155900314		-0.404088057
