12
-186.35103317
Al		-1.700568314		2.559389325		-1.230146546
Al		-0.530606985		0.000705589		-2.348220006
Al		-2.201721056		-0.339307747		-0.514491984
F		-0.757351365		3.685834981		-0.161705833
F		-3.017116		3.176107211		-2.315590534
F		-1.377256268		-1.671746157		-1.720050814
F		-2.525249505		1.449204465		0.052047895
F		-3.248333445		-1.304098376		0.603520184
F		0.62250023		-0.51651893		-3.643979325
F		-0.336387168		1.894561487		-2.349809802
F		-2.454773602		0.474182336		-2.304112383
F		-0.302898568		0.15849079		-0.401600523
