12
-186.35103317
Al		-1.699907064		2.559645453		-1.229496474
Al		-0.523685043		0.002613531		-2.355493986
Al		-2.2084193		-0.340171029		-0.506820426
F		-0.756605107		3.686867865		-0.160834225
F		-3.016295636		3.174406545		-2.315158272
F		-1.377024244		-1.641819661		-1.714290326
F		-2.518484055		1.445003331		0.040973947
F		-3.257998183		-1.313444012		0.613805968
F		0.633190078		-0.521723094		-3.656028795
F		-0.345709298		1.887087085		-2.343230698
F		-2.453682896		0.472436038		-2.303442209
F		-0.305310854		0.155653602		-0.404324965
