12
-186.35103317
Al		-1.699820814		2.559678861		-1.229411682
Al		-0.522782181		0.002862393		-2.356442766
Al		-2.209292984		-0.340283631		-0.505819788
F		-0.756507769		3.687002589		-0.160720537
F		-3.016188632		3.174184719		-2.31510189
F		-1.37699398		-1.637916205		-1.713538958
F		-2.517601605		1.444455357		0.039529519
F		-3.259258801		-1.314663008		0.615147592
F		0.634584406		-0.522401898		-3.657600465
F		-0.346925228		1.886112163		-2.342372554
F		-2.45354063		0.47220826		-2.303354795
F		-0.3056255		0.155283534		-0.404680327
