12
-186.35103317
Al		-1.699748939		2.559706701		-1.229341022
Al		-0.522029796		0.003069778		-2.357233416
Al		-2.210021054		-0.340377466		-0.504985923
F		-0.756426654		3.687114859		-0.160625797
F		-3.016099462		3.173999864		-2.315054905
F		-1.37696876		-1.634663325		-1.712912818
F		-2.51686623		1.443998712		0.038325829
F		-3.260309316		-1.315678838		0.616265612
F		0.635746346		-0.522967568		-3.65891019
F		-0.347938503		1.885299728		-2.341657434
F		-2.453422075		0.472018445		-2.30328195
F		-0.305887705		0.154975144		-0.404976462
