12
-186.35103317
Al		-1.699734564		2.559712269		-1.22932689
Al		-0.521879319		0.003111255		-2.357391546
Al		-2.210166668		-0.340396233		-0.50481915
F		-0.756410431		3.687137313		-0.160606849
F		-3.016081628		3.173962893		-2.315045508
F		-1.376963716		-1.634012749		-1.71278759
F		-2.516719155		1.443907383		0.038085091
F		-3.260519419		-1.315882004		0.616489216
F		0.635978734		-0.523080702		-3.659172135
F		-0.348141158		1.885137241		-2.34151441
F		-2.453398364		0.471980482		-2.303267381
F		-0.305940146		0.154913466		-0.405035689
