12
-186.35103317
Al		-1.700539564		2.559400461		-1.230118282
Al		-0.530306031		0.000788543		-2.348536266
Al		-2.202012284		-0.339345281		-0.514158438
F		-0.757318919		3.685879889		-0.161667937
F		-3.017080332		3.176033269		-2.31557174
F		-1.37724618		-1.670445005		-1.719800358
F		-2.524955355		1.449021807		0.051566419
F		-3.248753651		-1.304504708		0.603967392
F		0.622965006		-0.516745198		-3.644503215
F		-0.336792478		1.894236513		-2.349523754
F		-2.45472618		0.47410641		-2.304083245
F		-0.30300345		0.158367434		-0.401718977
