12
-186.35103317
Al		-1.699633939		2.559751245		-1.229227966
Al		-0.52082598		0.003401594		-2.358498456
Al		-2.211185966		-0.340527602		-0.503651739
F		-0.75629687		3.687294491		-0.160474213
F		-3.01595679		3.173704096		-2.314979729
F		-1.376928408		-1.629458717		-1.711910994
F		-2.51568963		1.44326808		0.036399925
F		-3.26199014		-1.317304166		0.618054444
F		0.63760545		-0.52387264		-3.66100575
F		-0.349559743		1.883999832		-2.340513242
F		-2.453232387		0.471714741		-2.303165398
F		-0.306307233		0.15448172		-0.405450278
