12
-186.35103317
Al		-1.699562064		2.559779085		-1.229157306
Al		-0.520073595		0.003608979		-2.359289106
Al		-2.211914036		-0.340621437		-0.502817874
F		-0.756215755		3.687406761		-0.160379473
F		-3.01586762		3.173519241		-2.314932744
F		-1.376903188		-1.626205837		-1.711284854
F		-2.514954255		1.442811435		0.035196235
F		-3.263040655		-1.318319996		0.619172464
F		0.63876739		-0.52443831		-3.662315475
F		-0.350573018		1.883187397		-2.339798122
F		-2.453113832		0.471524926		-2.303092553
F		-0.306569438		0.15417333		-0.405746413
