12
-186.35103317
Al		-1.699475814		2.559812493		-1.229072514
Al		-0.519170733		0.003857841		-2.360237886
Al		-2.21278772		-0.340734039		-0.501817236
F		-0.756118417		3.687541485		-0.160265785
F		-3.015760616		3.173297415		-2.314876362
F		-1.376872924		-1.622302381		-1.710533486
F		-2.514071805		1.442263461		0.033751807
F		-3.264301273		-1.319538992		0.620514088
F		0.640161718		-0.525117114		-3.663887145
F		-0.351788948		1.882212475		-2.338939978
F		-2.452971566		0.471297148		-2.303005139
F		-0.306884084		0.153803262		-0.406101775
