12
-186.35103317
Al		-1.699461439		2.559818061		-1.229058382
Al		-0.519020256		0.003899318		-2.360396016
Al		-2.212933334		-0.340752806		-0.501650463
F		-0.756102194		3.687563939		-0.160246837
F		-3.015742782		3.173260444		-2.314866965
F		-1.37686788		-1.621651805		-1.710408258
F		-2.51392473		1.442172132		0.033511069
F		-3.264511376		-1.319742158		0.620737692
F		0.640394106		-0.525230248		-3.66414909
F		-0.351991603		1.882049988		-2.338796954
F		-2.452947855		0.471259185		-2.30299057
F		-0.306936525		0.153741584		-0.406161002
