12
-186.35103317
Al		-1.699432689		2.559829197		-1.229030118
Al		-0.518719302		0.003982272		-2.360712276
Al		-2.213224562		-0.34079034		-0.501316917
F		-0.756069748		3.687608847		-0.160208941
F		-3.015707114		3.173186502		-2.314848171
F		-1.376857792		-1.620350653		-1.710157802
F		-2.51363058		1.441989474		0.033029593
F		-3.264931582		-1.32014849		0.6211849
F		0.640858882		-0.525456516		-3.66467298
F		-0.352396913		1.881725014		-2.338510906
F		-2.452900433		0.471183259		-2.302961432
F		-0.307041407		0.153618228		-0.406279456
