12
-186.35103317
Al		-1.699389564		2.559845901		-1.228987722
Al		-0.518267871		0.004106703		-2.361186666
Al		-2.213661404		-0.340846641		-0.500816598
F		-0.756021079		3.687676209		-0.160152097
F		-3.015653612		3.173075589		-2.31481998
F		-1.37684266		-1.618398925		-1.709782118
F		-2.513189355		1.441715487		0.032307379
F		-3.265561891		-1.320757988		0.621855712
F		0.641556046		-0.525795918		-3.665458815
F		-0.353004878		1.881237553		-2.338081834
F		-2.4528293		0.47106937		-2.302917725
F		-0.30719873		0.153433194		-0.406457137
