12
-186.35103317
Al		-1.699245814		2.559901581		-1.228846402
Al		-0.516763101		0.004521473		-2.362767966
Al		-2.215117544		-0.341034311		-0.499148868
F		-0.755858849		3.687900749		-0.159962617
F		-3.015475272		3.172705879		-2.31472601
F		-1.37679222		-1.611893165		-1.708529838
F		-2.511718605		1.440802197		0.029899999
F		-3.267662921		-1.322789648		0.624091752
F		0.643879926		-0.526927258		-3.668078265
F		-0.355031428		1.879612683		-2.336651594
F		-2.45259219		0.47068974		-2.302772035
F		-0.30772314		0.152816414		-0.407049407
