12
-186.35103317
Al		-1.699217064		2.559912717		-1.228818138
Al		-0.516462147		0.004604427		-2.363084226
Al		-2.215408772		-0.341071845		-0.498815322
F		-0.755826403		3.687945657		-0.159924721
F		-3.015439604		3.172631937		-2.314707216
F		-1.376782132		-1.610592013		-1.708279382
F		-2.511424455		1.440619539		0.029418523
F		-3.268083127		-1.32319598		0.62453896
F		0.644344702		-0.527153526		-3.668602155
F		-0.355436738		1.879287709		-2.336365546
F		-2.452544768		0.470613814		-2.302742897
F		-0.307828022		0.152693058		-0.407167861
