12
Properties=species:S:1:pos:R:3:forces:R:3 energy=-184.26150880 pbc="F F F"
Al    0.27811807200000005    -2.318065111    -1.824785161    0.065886    0.253815    0.05994
Al    2.02539173    -0.5430598560000001    -0.8119912239999999    -0.236864    -0.05376    -0.115551
Al    -0.328460906    0.301247003    -1.799859183    0.170985    -0.200045    0.055614
F    3.615057688    -0.18230521600000002    -0.036500523    -0.051597    -0.011709    -0.025171
F    -0.164034074    -4.021378793    -2.227023636    0.014347    0.055273    0.013052
F    2.190218238    -1.9107351759999998    -2.2684036890000003    -0.609041    1.261798    -1.160683
F    1.566191195    0.783919539    -2.24275962    0.002713    -1.379881    -1.185819
F    -1.475975422    1.643806031    -2.173111411    0.037244    -0.043574    0.012115
F    -1.264686886    -1.302755652    -1.0452093690000002    0.992519    0.21548    1.509544
F    -0.231340574    -1.0421426089999999    -3.284687281    1.764908    0.410281    -0.164382
F    0.5328438959999999    0.523306198    -0.0032844020000000005    -0.769672    -1.574676    0.4881
F    1.156870934    -2.17134821    -0.028926773    -1.381428    1.066999    0.513241
