      12
SCF Done            -184.26150880
Al            0.279731072        -2.311853111        -1.823318161
Al            2.019593730        -0.544375856        -0.814819224
Al           -0.324275906         0.296351003        -1.798498183
F             3.607632688        -0.183990216        -0.040122523
F            -0.161969074        -4.013422793        -2.225144636
F             1.987295238        -1.607027176        -2.450593689
F             1.516655195         0.425274539        -2.431253620
F            -1.470615422         1.637535031        -2.171368411
F            -0.965613886        -1.236062652        -0.775549369
F             0.160961426        -0.951936609        -3.217072281
F             0.390079896         0.141149198         0.010268598
F             0.860719934        -1.891153210        -0.009070773
