      12
SCF Done            -185.74534843
Al            0.535231993        -0.596931158         1.767452939
Al            2.206690565        -1.869495072        -0.783951897
Al           -1.108156981        -1.754258558        -0.779769743
F             3.512029907        -0.491107593        -0.859811180
F            -1.727982454        -0.567928688        -2.118669797
F             2.859485395        -3.573850494        -0.326450243
F            -1.061899566        -3.598044002        -1.192818720
F             1.975729597        -1.324332193         0.989571002
F             0.611075764        -1.511328082        -1.521430465
F            -0.020405848        -1.174022363         3.424429089
F             0.439598371         1.135584299         1.203443936
F            -0.946222268        -1.541122983         1.029417214
