12
Properties=species:S:1:pos:R:3:forces:R:3 energy=-187.23908436 pbc="F F F"
Al    0.35501969299999997    -0.7410567579999999    1.828003239    0.177107    0.326735    -0.156734
Al    2.367898565    -1.6115072719999999    -0.6474961969999999    -0.086588    -0.322261    -0.058917
Al    -0.905930281    -1.870557458    -0.959688143    -0.114631    -0.026404    0.134857
F    3.412409607    -0.317216093    -1.30519308    0.10619    0.127645    -0.052118
F    -1.916444654    -0.511044288    -1.6681182970000001    -0.006223    0.018417    -0.019491
F    2.8227176949999997    -3.4004100939999997    -0.578359243    -0.023378    0.150372    -0.007049
F    -1.202093366    -3.652196802    -1.23695152    0.003644    -0.004298    -0.013664
F    2.017479797    -1.213160593    1.112126402    -0.0508    0.03758    0.096859
F    0.7874656640000001    -1.447404482    -1.5230694649999998    0.135511    0.019178    -0.011385
F    0.29031155200000003    -1.472914763    3.4855954889999996    -0.031244    -0.06063    0.151085
F    0.08610307099999998    1.087902999    1.440850636    -0.014051    -0.179384    0.066027
F    -0.874842768    -1.716827083    0.880435914    -0.095537    -0.08695    -0.129472
