12
-187.24475565
Al		0.346455795		-0.580762578		1.760547517
Al		2.377654363		-1.796601454		-0.52739599
Al		-0.916435582		-1.83890644		-1.007284936
F		3.494511011		-0.471213993		-1.123252403
F		-1.849872551		-0.539850389		-1.901831821
F		2.741001487		-3.593138677		-0.490489492
F		-1.229915073		-3.644135985		-1.068979769
F		1.910532096		-1.420857332		1.228447
F		0.834901664		-1.498994582		-1.511331965
F		0.104739051		-1.184904741		3.473016881
F		0.407476079		1.159653566		1.188259772
F		-0.979201569		-1.457969321		0.807465412
