12
-187.24475565
Al		0.349278341		-0.597274303		1.742628435
Al		2.353489973		-1.78960819		-0.520327165
Al		-0.895475548		-1.831333697		-0.993642304
F		3.478177464		-0.493567945		-1.113931255
F		-1.836319898		-0.561820484		-1.888156793
F		2.737295438		-3.565729347		-0.491713331
F		-1.226704398		-3.616637833		-1.06919595
F		1.898239327		-1.415625912		1.212760216
F		0.832150229		-1.507448069		-1.491700078
F		0.108452754		-1.173741204		3.446540627
F		0.406416534		1.137851058		1.197454629
F		-0.963080376		-1.452373001		0.795918018
