12
-187.24475565
Al		0.349246627		-0.597088778		1.742829773
Al		2.353761483		-1.789686766		-0.52040659
Al		-0.895711054		-1.831418784		-0.993795592
F		3.478360987		-0.493316777		-1.114035987
F		-1.836472175		-0.561573629		-1.888310445
F		2.737337079		-3.566037317		-0.49169958
F		-1.226740473		-3.616946801		-1.069193521
F		1.898377448		-1.415684692		1.212936472
F		0.832181144		-1.507353086		-1.491920661
F		0.108411027		-1.173866637		3.446838113
F		0.406428439		1.13809603		1.197351316
F		-0.963261513		-1.452435881		0.796047764
