12
-187.24475565
Al		0.349119771		-0.596346678		1.743635125
Al		2.354847523		-1.79000107		-0.52072429
Al		-0.896653078		-1.831759132		-0.994408744
F		3.479095079		-0.492312105		-1.114454915
F		-1.837081283		-0.560586209		-1.888925053
F		2.737503643		-3.567269197		-0.491644576
F		-1.226884773		-3.618182673		-1.069183805
F		1.898929932		-1.415919812		1.213641496
F		0.832304804		-1.506973154		-1.492802993
F		0.108244119		-1.174368369		3.448028057
F		0.406476059		1.139075918		1.196938064
F		-0.963986061		-1.452687401		0.796566748
