12
-187.24475565
Al		0.348961201		-0.595419053		1.744641815
Al		2.356205073		-1.79039395		-0.521121415
Al		-0.897830608		-1.832184567		-0.995175184
F		3.480012694		-0.491056265		-1.114978575
F		-1.837842668		-0.559351934		-1.889693313
F		2.737711848		-3.568809047		-0.491575821
F		-1.227065148		-3.619727513		-1.06917166
F		1.899620537		-1.416213712		1.214522776
F		0.832459379		-1.506498239		-1.493905908
F		0.108035484		-1.174995534		3.449515487
F		0.406535584		1.140300778		1.196421499
F		-0.964891746		-1.453001801		0.797215478
