12
-187.24475565
Al		0.348929487		-0.595233528		1.744843153
Al		2.356476583		-1.790472526		-0.52120084
Al		-0.898066114		-1.832269654		-0.995328472
F		3.480196217		-0.490805097		-1.115083307
F		-1.837994945		-0.559105079		-1.889846965
F		2.737753489		-3.569117017		-0.49156207
F		-1.227101223		-3.620036481		-1.069169231
F		1.899758658		-1.416272492		1.214699032
F		0.832490294		-1.506403256		-1.494126491
F		0.107993757		-1.175120967		3.449812973
F		0.406547489		1.14054575		1.196318186
F		-0.965072883		-1.453064681		0.797345224
