12
-187.24475565
Al		0.348675775		-0.593749328		1.746453857
Al		2.358648663		-1.791101134		-0.52183624
Al		-0.899950162		-1.83295035		-0.996554776
F		3.481664401		-0.488795753		-1.115921163
F		-1.839213161		-0.557130239		-1.891076181
F		2.738086617		-3.571580777		-0.491452062
F		-1.227389823		-3.622508225		-1.069149799
F		1.900863626		-1.416742732		1.21610908
F		0.832737614		-1.505643392		-1.495891155
F		0.107659941		-1.176124431		3.452192861
F		0.406642729		1.142505526		1.195491682
F		-0.966521979		-1.453567721		0.798383192
