12
-187.24475565
Al		0.348644061		-0.593563803		1.746655195
Al		2.358920173		-1.79117971		-0.521915665
Al		-0.900185668		-1.833035437		-0.996708064
F		3.481847924		-0.488544585		-1.116025895
F		-1.839365438		-0.556883384		-1.891229833
F		2.738128258		-3.571888747		-0.491438311
F		-1.227425898		-3.622817193		-1.06914737
F		1.901001747		-1.416801512		1.216285336
F		0.832768529		-1.505548409		-1.496111738
F		0.107618214		-1.176249864		3.452490347
F		0.406654634		1.142750498		1.195388369
F		-0.966703116		-1.453630601		0.798512938
