12
-187.24475565
Al		0.348517205		-0.592821703		1.747460547
Al		2.360006213		-1.791494014		-0.522233365
Al		-0.901127692		-1.833375785		-0.997321216
F		3.482582016		-0.487539913		-1.116444823
F		-1.839974546		-0.555895964		-1.891844441
F		2.738294822		-3.573120627		-0.491383307
F		-1.227570198		-3.624053065		-1.069137654
F		1.901554231		-1.417036632		1.21699036
F		0.832892189		-1.505168477		-1.49699407
F		0.107451306		-1.176751596		3.453680291
F		0.406702254		1.143730386		1.194975117
F		-0.967427664		-1.453882121		0.799031922
