12
-187.24475565
Al		0.348390349		-0.592079603		1.748265899
Al		2.361092253		-1.791808318		-0.522551065
Al		-0.902069716		-1.833716133		-0.997934368
F		3.483316108		-0.486535241		-1.116863751
F		-1.840583654		-0.554908544		-1.892459049
F		2.738461386		-3.574352507		-0.491328303
F		-1.227714498		-3.625288937		-1.069127938
F		1.902106715		-1.417271752		1.217695384
F		0.833015849		-1.504788545		-1.497876402
F		0.107284398		-1.177253328		3.454870235
F		0.406749874		1.144710274		1.194561865
F		-0.968152212		-1.454133641		0.799550906
