12
-187.24475565
Al		0.348326921		-0.591708553		1.748668575
Al		2.361635273		-1.79196547		-0.522709915
Al		-0.902540728		-1.833886307		-0.998240944
F		3.483683154		-0.486032905		-1.117073215
F		-1.840888208		-0.554414834		-1.892766353
F		2.738544668		-3.574968447		-0.491300801
F		-1.227786648		-3.625906873		-1.06912308
F		1.902382957		-1.417389312		1.218047896
F		0.833077679		-1.504598579		-1.498317568
F		0.107200944		-1.177504194		3.455465207
F		0.406773684		1.145200218		1.194355239
F		-0.968514486		-1.454259401		0.799810398
