12
-187.24475565
Al		0.348231779		-0.591151978		1.749272589
Al		2.362449803		-1.792201198		-0.52294819
Al		-0.903247246		-1.834141568		-0.998700808
F		3.484233723		-0.485279401		-1.117387411
F		-1.841345039		-0.553674269		-1.893227309
F		2.738669591		-3.575892357		-0.491259548
F		-1.227894873		-3.626833777		-1.069115793
F		1.90279732		-1.417565652		1.218576664
F		0.833170424		-1.50431363		-1.498979317
F		0.107075763		-1.177880493		3.456357665
F		0.406809399		1.145935134		1.1940453
F		-0.969057897		-1.454448041		0.800199636
