12
-187.24475565
Al		0.348009781		-0.589853303		1.750681955
Al		2.364350373		-1.79275123		-0.523504165
Al		-0.904895788		-1.834737177		-0.999773824
F		3.485518384		-0.483521225		-1.118120535
F		-1.842410978		-0.551946284		-1.894302873
F		2.738961078		-3.578048147		-0.491163291
F		-1.228147398		-3.628996553		-1.06909879
F		1.903764167		-1.417977112		1.219810456
F		0.833386829		-1.503648749		-1.500523398
F		0.106783674		-1.178758524		3.458440067
F		0.406892734		1.147649938		1.193322109
F		-0.970325856		-1.454888201		0.801107858
