12
-187.24475565
Al		0.347851211		-0.588925678		1.751688645
Al		2.365707923		-1.79314411		-0.52390129
Al		-0.906073318		-1.835162612		-1.000540264
F		3.486435999		-0.482265385		-1.118644195
F		-1.843172363		-0.550712009		-1.895071133
F		2.739169283		-3.579587997		-0.491094536
F		-1.228327773		-3.630541393		-1.069086645
F		1.904454772		-1.418271012		1.220691736
F		0.833541404		-1.503173834		-1.501626313
F		0.106575039		-1.179385689		3.459927497
F		0.406952259		1.148874798		1.192805544
F		-0.971231541		-1.455202601		0.801756588
