12
-187.24475565
Al		0.347787783		-0.588554628		1.752091321
Al		2.366250943		-1.793301262		-0.52406014
Al		-0.90654433		-1.835332786		-1.00084684
F		3.486803045		-0.481763049		-1.118853659
F		-1.843476917		-0.550218299		-1.895378437
F		2.739252565		-3.580203937		-0.491067034
F		-1.228399923		-3.631159329		-1.069081787
F		1.904731014		-1.418388572		1.221044248
F		0.833603234		-1.502983868		-1.502067479
F		0.106491585		-1.179636555		3.460522469
F		0.406976069		1.149364742		1.192598918
F		-0.971593815		-1.455328361		0.80201608
