12
-187.24475565
Al		0.347470643		-0.586699378		1.754104701
Al		2.368966043		-1.794087022		-0.52485439
Al		-0.90889939		-1.836183656		-1.00237972
F		3.488638275		-0.479251369		-1.119900979
F		-1.844999687		-0.547749749		-1.896914957
F		2.739668975		-3.583283637		-0.490929524
F		-1.228760673		-3.634249009		-1.069057497
F		1.906112224		-1.418976372		1.222806808
F		0.833912384		-1.502034038		-1.504273309
F		0.106074315		-1.180890885		3.463497329
F		0.407095119		1.151814462		1.191565788
F		-0.973405185		-1.455957161		0.80331354
