12
-187.24475565
Al		0.347375501		-0.586142803		1.754708715
Al		2.369780573		-1.79432275		-0.525092665
Al		-0.909605908		-1.836438917		-1.002839584
F		3.489188844		-0.478497865		-1.120215175
F		-1.845456518		-0.547009184		-1.897375913
F		2.739793898		-3.584207547		-0.490888271
F		-1.228868898		-3.635175913		-1.06905021
F		1.906526587		-1.419152712		1.223335576
F		0.834005129		-1.501749089		-1.504935058
F		0.105949134		-1.181267184		3.464389787
F		0.407130834		1.152549378		1.191255849
F		-0.973948596		-1.456145801		0.803702778
