12
-187.24475565
Al		0.347153503		-0.584844128		1.756118081
Al		2.371681143		-1.794872782		-0.52564864
Al		-0.91125445		-1.837034526		-1.0039126
F		3.490473505		-0.476739689		-1.120948299
F		-1.846522457		-0.545281199		-1.898451477
F		2.740085385		-3.586363337		-0.490792014
F		-1.229121423		-3.637338689		-1.069033207
F		1.907493434		-1.419564172		1.224569368
F		0.834221534		-1.501084208		-1.506479139
F		0.105657045		-1.182145215		3.466472189
F		0.407214169		1.154264182		1.190532658
F		-0.975216555		-1.456585961		0.804611
