12
-187.24475565
Al		0.349373483		-0.597830878		1.742024421
Al		2.352675443		-1.789372462		-0.52008889
Al		-0.89476903		-1.831078436		-0.99318244
F		3.477626895		-0.494321449		-1.113617059
F		-1.835863067		-0.562561049		-1.887695837
F		2.737170515		-3.564805437		-0.491754584
F		-1.226596173		-3.615710929		-1.069203237
F		1.897824964		-1.415449572		1.212231448
F		0.832057484		-1.507733018		-1.491038329
F		0.108577935		-1.173364905		3.445648169
F		0.406380819		1.137116142		1.197764568
F		-0.962536965		-1.452184361		0.79552878
