12
-187.24475565
Al		0.347026647		-0.584102028		1.756923433
Al		2.372767183		-1.795187086		-0.52596634
Al		-0.912196474		-1.837374874		-1.004525752
F		3.491207597		-0.475735017		-1.121367227
F		-1.847131565		-0.544293779		-1.899066085
F		2.740251949		-3.587595217		-0.49073701
F		-1.229265723		-3.638574561		-1.069023491
F		1.908045918		-1.419799292		1.225274392
F		0.834345194		-1.500704276		-1.507361471
F		0.105490137		-1.182646947		3.467662133
F		0.407261789		1.15524407		1.190119406
F		-0.975941103		-1.456837481		0.805129984
