12
-187.24475565
Al		0.346963219		-0.583730978		1.757326109
Al		2.373310203		-1.795344238		-0.52612519
Al		-0.912667486		-1.837545048		-1.004832328
F		3.491574643		-0.475232681		-1.121576691
F		-1.847436119		-0.543800069		-1.899373389
F		2.740335231		-3.588211157		-0.490709508
F		-1.229337873		-3.639192497		-1.069018633
F		1.90832216		-1.419916852		1.225626904
F		0.834407024		-1.50051431		-1.507802637
F		0.105406683		-1.182897813		3.468257105
F		0.407285599		1.155734014		1.18991278
F		-0.976303377		-1.456963241		0.805389476
