12
-187.24475565
Al		0.346931505		-0.583545453		1.757527447
Al		2.373581713		-1.795422814		-0.526204615
Al		-0.912902992		-1.837630135		-1.004985616
F		3.491758166		-0.474981513		-1.121681423
F		-1.847588396		-0.543553214		-1.899527041
F		2.740376872		-3.588519127		-0.490695757
F		-1.229373948		-3.639501465		-1.069016204
F		1.908460281		-1.419975632		1.22580316
F		0.834437939		-1.500419327		-1.50802322
F		0.105364956		-1.183023246		3.468554591
F		0.407297504		1.155978986		1.189809467
F		-0.976484514		-1.457026121		0.805519222
