12
-187.24475565
Al		0.346899791		-0.583359928		1.757728785
Al		2.373853223		-1.79550139		-0.52628404
Al		-0.913138498		-1.837715222		-1.005138904
F		3.491941689		-0.474730345		-1.121786155
F		-1.847740673		-0.543306359		-1.899680693
F		2.740418513		-3.588827097		-0.490682006
F		-1.229410023		-3.639810433		-1.069013775
F		1.908598402		-1.420034412		1.225979416
F		0.834468854		-1.500324344		-1.508243803
F		0.105323229		-1.183148679		3.468852077
F		0.407309409		1.156223958		1.189706154
F		-0.976665651		-1.457089001		0.805648968
