12
-187.24475565
Al		0.346804649		-0.582803353		1.758332799
Al		2.374667753		-1.795737118		-0.526522315
Al		-0.913845016		-1.837970483		-1.005598768
F		3.492492258		-0.473976841		-1.122100351
F		-1.848197504		-0.542565794		-1.900141649
F		2.740543436		-3.589751007		-0.490640753
F		-1.229518248		-3.640737337		-1.069006488
F		1.909012765		-1.420210752		1.226508184
F		0.834561599		-1.500039395		-1.508905552
F		0.105198048		-1.183524978		3.469744535
F		0.407345124		1.156958874		1.189396215
F		-0.977209062		-1.457277641		0.806038206
