12
-187.24475565
Al		0.346519223		-0.581133628		1.760144841
Al		2.377111343		-1.796444302		-0.52723714
Al		-0.91596457		-1.838736266		-1.00697836
F		3.494143965		-0.471716329		-1.123042939
F		-1.849567997		-0.540344099		-1.901524517
F		2.740918205		-3.592522737		-0.490516994
F		-1.229842923		-3.643518049		-1.068984627
F		1.910255854		-1.420739772		1.228094488
F		0.834839834		-1.499184548		-1.510890799
F		0.104822505		-1.184653875		3.472421909
F		0.407452269		1.159163622		1.188466398
F		-0.978839295		-1.457843561		0.80720592
