12
-187.24475565
Al		0.346487509		-0.580948103		1.760346179
Al		2.377382853		-1.796522878		-0.527316565
Al		-0.916200076		-1.838821353		-1.007131648
F		3.494327488		-0.471465161		-1.123147671
F		-1.849720274		-0.540097244		-1.901678169
F		2.740959846		-3.592830707		-0.490503243
F		-1.229878998		-3.643827017		-1.068982198
F		1.910393975		-1.420798552		1.228270744
F		0.834870749		-1.499089565		-1.511111382
F		0.104780778		-1.184779308		3.472719395
F		0.407464174		1.159408594		1.188363085
F		-0.979020432		-1.457906441		0.807335666
