12
-187.24475565
Al		0.349658909		-0.599500603		1.740212379
Al		2.350231853		-1.788665278		-0.519374065
Al		-0.892649476		-1.830312653		-0.991802848
F		3.475975188		-0.496581961		-1.112674471
F		-1.834492574		-0.564782744		-1.886312969
F		2.736795746		-3.562033707		-0.491878343
F		-1.226271498		-3.612930217		-1.069225098
F		1.896581875		-1.414920552		1.210645144
F		0.831779249		-1.508587865		-1.489053082
F		0.108953478		-1.172236008		3.442970795
F		0.406273674		1.134911394		1.198694385
F		-0.960906732		-1.451618441		0.794361066
