12
-187.24475565
Al		0.350007763		-0.601541378		1.737997661
Al		2.347245243		-1.787800942		-0.51850039
Al		-0.89005891		-1.829376696		-0.99011668
F		3.473956435		-0.499344809		-1.111522419
F		-1.832817527		-0.567498149		-1.884622797
F		2.736337695		-3.558646037		-0.492029604
F		-1.225874673		-3.609531569		-1.069251817
F		1.895062544		-1.414273972		1.208706328
F		0.831439184		-1.509632678		-1.486626669
F		0.109412475		-1.170856245		3.439698449
F		0.406142719		1.132216702		1.199830828
F		-0.958914225		-1.450926761		0.79293386
