12
-187.24475565
Al		0.350071191		-0.601912428		1.737594985
Al		2.346702223		-1.78764379		-0.51834154
Al		-0.889587898		-1.829206522		-0.989810104
F		3.473589389		-0.499847145		-1.111312955
F		-1.832512973		-0.567991859		-1.884315493
F		2.736254413		-3.558030097		-0.492057106
F		-1.225802523		-3.608913633		-1.069256675
F		1.894786302		-1.414156412		1.208353816
F		0.831377354		-1.509822644		-1.486185503
F		0.109495929		-1.170605379		3.439103477
F		0.406118909		1.131726758		1.200037454
F		-0.958551951		-1.450801001		0.792674368
