12
-187.24475565
Al		0.350293189		-0.603211103		1.736185619
Al		2.344801653		-1.787093758		-0.517785565
Al		-0.887939356		-1.828610913		-0.988737088
F		3.472304728		-0.501605321		-1.110579831
F		-1.831447034		-0.569719844		-1.883239929
F		2.735962926		-3.555874307		-0.492153363
F		-1.225549998		-3.606750857		-1.069273678
F		1.893819455		-1.413744952		1.207120024
F		0.831160949		-1.510487525		-1.484641422
F		0.109788018		-1.169727348		3.437021075
F		0.406035574		1.130011954		1.200760645
F		-0.957283992		-1.450360841		0.791766146
