12
-187.24475565
Al		0.350483473		-0.604324253		1.734977591
Al		2.343172593		-1.786622302		-0.517309015
Al		-0.88652632		-1.828100391		-0.98781736
F		3.47120359		-0.503112329		-1.109951439
F		-1.830533372		-0.571200974		-1.882318017
F		2.73571308		-3.554026487		-0.492235869
F		-1.225333548		-3.604897049		-1.069288252
F		1.892990729		-1.413392272		1.206062488
F		0.830975459		-1.511057423		-1.483317924
F		0.11003838		-1.16897475		3.435236159
F		0.405964144		1.128542122		1.201380523
F		-0.95619717		-1.449983561		0.79098767
