12
-187.24475565
Al		0.350610329		-0.605066353		1.734172239
Al		2.342086553		-1.786307998		-0.516991315
Al		-0.885584296		-1.827760043		-0.987204208
F		3.470469498		-0.504117001		-1.109532511
F		-1.829924264		-0.572188394		-1.881703409
F		2.735546516		-3.552794607		-0.492290873
F		-1.225189248		-3.603661177		-1.069297968
F		1.892438245		-1.413157152		1.205357464
F		0.830851799		-1.511437355		-1.482435592
F		0.110205288		-1.168473018		3.434046215
F		0.405916524		1.127562234		1.201793775
F		-0.955472622		-1.449732041		0.790468686
