12
-187.24475565
Al		0.350768899		-0.605993978		1.733165549
Al		2.340729003		-1.785915118		-0.51659419
Al		-0.884406766		-1.827334608		-0.986437768
F		3.469551883		-0.505372841		-1.109008851
F		-1.829162879		-0.573422669		-1.880935149
F		2.735338311		-3.551254757		-0.492359628
F		-1.225008873		-3.602116337		-1.069310113
F		1.89174764		-1.412863252		1.204476184
F		0.830697224		-1.51191227		-1.481332677
F		0.110413923		-1.167845853		3.432558785
F		0.405856999		1.126337374		1.20231034
F		-0.954566937		-1.449417641		0.789819956
