12
-187.24475565
Al		0.349754051		-0.600057178		1.739608365
Al		2.349417323		-1.78842955		-0.51913579
Al		-0.891942958		-1.830057392		-0.991342984
F		3.475424619		-0.497335465		-1.112360275
F		-1.834035743		-0.565523309		-1.885852013
F		2.736670823		-3.561109797		-0.491919596
F		-1.226163273		-3.612003313		-1.069232385
F		1.896167512		-1.414744212		1.210116376
F		0.831686504		-1.508872814		-1.488391333
F		0.109078659		-1.171859709		3.442078337
F		0.406237959		1.134176478		1.199004324
F		-0.960363321		-1.451429801		0.793971828
