12
-187.24475565
Al		0.350959183		-0.607107128		1.731957521
Al		2.339099943		-1.785443662		-0.51611764
Al		-0.88299373		-1.826824086		-0.98551804
F		3.468450745		-0.506879849		-1.108380459
F		-1.828249217		-0.574903799		-1.880013237
F		2.735088465		-3.549406937		-0.492442134
F		-1.224792423		-3.600262529		-1.069324687
F		1.890918914		-1.412510572		1.203418648
F		0.830511734		-1.512482168		-1.480009179
F		0.110664285		-1.167093255		3.430773869
F		0.405785569		1.124867542		1.202930218
F		-0.953480115		-1.449040361		0.78904148
