12
-187.24475565
Al		0.351117753		-0.608034753		1.730950831
Al		2.337742393		-1.785050782		-0.515720515
Al		-0.8818162		-1.826398651		-0.9847516
F		3.46753313		-0.508135689		-1.107856799
F		-1.827487832		-0.576138074		-1.879244977
F		2.73488026		-3.547867087		-0.492510889
F		-1.224612048		-3.598717689		-1.069336832
F		1.890228309		-1.412216672		1.202537368
F		0.830357159		-1.512957083		-1.478906264
F		0.11087292		-1.16646609		3.429286439
F		0.405726044		1.123642682		1.203446783
F		-0.95257443		-1.448725961		0.78839275
