12
-187.24475565
Al		0.351403179		-0.609704478		1.729138789
Al		2.335298803		-1.784343598		-0.51500569
Al		-0.879696646		-1.825632868		-0.983372008
F		3.465881423		-0.510396201		-1.106914211
F		-1.826117339		-0.578359769		-1.877862109
F		2.734505491		-3.545095357		-0.492634648
F		-1.224287373		-3.595936977		-1.069358693
F		1.88898522		-1.411687652		1.200951064
F		0.830078924		-1.51381193		-1.476921017
F		0.111248463		-1.165337193		3.426609065
F		0.405618899		1.121437934		1.2043766
F		-0.950944197		-1.448160041		0.787225036
