12
-187.24475565
Al		0.349817479		-0.600428228		1.739205689
Al		2.348874303		-1.788272398		-0.51897694
Al		-0.891471946		-1.829887218		-0.991036408
F		3.475057573		-0.497837801		-1.112150811
F		-1.833731189		-0.566017019		-1.885544709
F		2.736587541		-3.560493857		-0.491947098
F		-1.226091123		-3.611385377		-1.069237243
F		1.89589127		-1.414626652		1.209763864
F		0.831624674		-1.50906278		-1.487950167
F		0.109162113		-1.171608843		3.441483365
F		0.406214149		1.133686534		1.19921095
F		-0.960001047		-1.451304041		0.793712336
