12
-187.24475565
Al		0.351530035		-0.610446578		1.728333437
Al		2.334212763		-1.784029294		-0.51468799
Al		-0.878754622		-1.82529252		-0.982758856
F		3.465147331		-0.511400873		-1.106495283
F		-1.825508231		-0.579347189		-1.877247501
F		2.734338927		-3.543863477		-0.492689652
F		-1.224143073		-3.594701105		-1.069368409
F		1.888432736		-1.411452532		1.20024604
F		0.829955264		-1.514191862		-1.476038685
F		0.111415371		-1.164835461		3.425419121
F		0.405571279		1.120458046		1.204789852
F		-0.950219649		-1.447908521		0.786706052
