12
-187.24475565
Al		0.351561749		-0.610632103		1.728132099
Al		2.333941253		-1.783950718		-0.514608565
Al		-0.878519116		-1.825207433		-0.982605568
F		3.464963808		-0.511652041		-1.106390551
F		-1.825355954		-0.579594044		-1.877093849
F		2.734297286		-3.543555507		-0.492703403
F		-1.224106998		-3.594392137		-1.069370838
F		1.888294615		-1.411393752		1.200069784
F		0.829924349		-1.514286845		-1.475818102
F		0.111457098		-1.164710028		3.425121635
F		0.405559374		1.120213074		1.204893165
F		-0.950038512		-1.447845641		0.786576306
