12
-187.24475565
Al		0.351593463		-0.610817628		1.727930761
Al		2.333669743		-1.783872142		-0.51452914
Al		-0.87828361		-1.825122346		-0.98245228
F		3.464780285		-0.511903209		-1.106285819
F		-1.825203677		-0.579840899		-1.876940197
F		2.734255645		-3.543247537		-0.492717154
F		-1.224070923		-3.594083169		-1.069373267
F		1.888156494		-1.411334972		1.199893528
F		0.829893434		-1.514381828		-1.475597519
F		0.111498825		-1.164584595		3.424824149
F		0.405547469		1.119968102		1.204996478
F		-0.949857375		-1.447782761		0.78644656
