12
-187.24475565
Al		0.351783747		-0.611930778		1.726722733
Al		2.332040683		-1.783400686		-0.51405259
Al		-0.876870574		-1.824611824		-0.981532552
F		3.463679147		-0.513410217		-1.105657427
F		-1.824290015		-0.581322029		-1.876018285
F		2.734005799		-3.541399717		-0.49279966
F		-1.223854473		-3.592229361		-1.069387841
F		1.887327768		-1.410982292		1.198835992
F		0.829707944		-1.514951726		-1.474274021
F		0.111749187		-1.163831997		3.423039233
F		0.405476039		1.11849827		1.205616356
F		-0.948770553		-1.447405481		0.785668084
