12
-187.24475565
Al		0.349849193		-0.600613753		1.739004351
Al		2.348602793		-1.788193822		-0.518897515
Al		-0.89123644		-1.829802131		-0.99088312
F		3.47487405		-0.498088969		-1.112046079
F		-1.833578912		-0.566263874		-1.885391057
F		2.7365459		-3.560185887		-0.491960849
F		-1.226055048		-3.611076409		-1.069239672
F		1.895753149		-1.414567872		1.209587608
F		0.831593759		-1.509157763		-1.487729584
F		0.10920384		-1.17148341		3.441185879
F		0.406202244		1.133441562		1.199314263
F		-0.95981991		-1.451241161		0.79358259
