12
-187.24475565
Al		0.351847175		-0.612301828		1.726320057
Al		2.331497663		-1.783243534		-0.51389374
Al		-0.876399562		-1.82444165		-0.981225976
F		3.463312101		-0.513912553		-1.105447963
F		-1.823985461		-0.581815739		-1.875710981
F		2.733922517		-3.540783777		-0.492827162
F		-1.223782323		-3.591611425		-1.069392699
F		1.887051526		-1.410864732		1.19848348
F		0.829646114		-1.515141692		-1.473832855
F		0.111832641		-1.163581131		3.422444261
F		0.405452229		1.118008326		1.205822982
F		-0.948408279		-1.447279721		0.785408592
