12
-187.24475565
Al		0.351878889		-0.612487353		1.726118719
Al		2.331226153		-1.783164958		-0.513814315
Al		-0.876164056		-1.824356563		-0.981072688
F		3.463128578		-0.514163721		-1.105343231
F		-1.823833184		-0.582062594		-1.875557329
F		2.733880876		-3.540475807		-0.492840913
F		-1.223746248		-3.591302457		-1.069395128
F		1.886913405		-1.410805952		1.198307224
F		0.829615199		-1.515236675		-1.473612272
F		0.111874368		-1.163455698		3.422146775
F		0.405440324		1.117763354		1.205926295
F		-0.948227142		-1.447216841		0.785278846
