12
-187.24475565
Al		0.351942317		-0.612858403		1.725716043
Al		2.330683133		-1.783007806		-0.513655465
Al		-0.875693044		-1.824186389		-0.980766112
F		3.462761532		-0.514666057		-1.105133767
F		-1.82352863		-0.582556304		-1.875250025
F		2.733797594		-3.539859867		-0.492868415
F		-1.223674098		-3.590684521		-1.069399986
F		1.886637163		-1.410688392		1.197954712
F		0.829553369		-1.515426641		-1.473171106
F		0.111957822		-1.163204832		3.421551803
F		0.405416514		1.11727341		1.206132921
F		-0.947864868		-1.447091081		0.785019354
