12
-187.24475565
Al		0.352196029		-0.614342603		1.724105339
Al		2.328511053		-1.782379198		-0.513020065
Al		-0.873808996		-1.823505693		-0.979539808
F		3.461293348		-0.516675401		-1.104295911
F		-1.822310414		-0.584531144		-1.874020809
F		2.733464466		-3.537396107		-0.492978423
F		-1.223385498		-3.588212777		-1.069419418
F		1.885532195		-1.410218152		1.196544664
F		0.829306049		-1.516186505		-1.471406442
F		0.112291638		-1.162201368		3.419171915
F		0.405321274		1.115313634		1.206959425
F		-0.946415772		-1.446588041		0.783981386
