12
-187.24475565
Al		0.352322885		-0.615084703		1.723299987
Al		2.327425013		-1.782064894		-0.512702365
Al		-0.872866972		-1.823165345		-0.978926656
F		3.460559256		-0.517680073		-1.103876983
F		-1.821701306		-0.585518564		-1.873406201
F		2.733297902		-3.536164227		-0.493033427
F		-1.223241198		-3.586976905		-1.069429134
F		1.884979711		-1.409983032		1.19583964
F		0.829182389		-1.516566437		-1.47052411
F		0.112458546		-1.161699636		3.417981971
F		0.405273654		1.114333746		1.207372677
F		-0.945691224		-1.446336521		0.783462402
