12
-187.24475565
Al		0.349912621		-0.600984803		1.738601675
Al		2.348059773		-1.78803667		-0.518738665
Al		-0.890765428		-1.829631957		-0.990576544
F		3.474507004		-0.498591305		-1.111836615
F		-1.833274358		-0.566757584		-1.885083753
F		2.736462618		-3.559569947		-0.491988351
F		-1.225982898		-3.610458473		-1.06924453
F		1.895476907		-1.414450312		1.209235096
F		0.831531929		-1.509347729		-1.487288418
F		0.109287294		-1.171232544		3.440590907
F		0.406178434		1.132951618		1.199520889
F		-0.959457636		-1.451115401		0.793323098
