12
-187.24475565
Al		0.352513169		-0.616197853		1.722091959
Al		2.325795953		-1.781593438		-0.512225815
Al		-0.871453936		-1.822654823		-0.978006928
F		3.459458118		-0.519187081		-1.103248591
F		-1.820787644		-0.586999694		-1.872484289
F		2.733048056		-3.534316407		-0.493115933
F		-1.223024748		-3.585123097		-1.069443708
F		1.884150985		-1.409630352		1.194782104
F		0.828996899		-1.517136335		-1.469200612
F		0.112708908		-1.160947038		3.416197055
F		0.405202224		1.112863914		1.207992555
F		-0.944604402		-1.445959241		0.782683926
