12
-187.24475565
Al		0.352671739		-0.617125478		1.721085269
Al		2.324438403		-1.781200558		-0.51182869
Al		-0.870276406		-1.822229388		-0.977240488
F		3.458540503		-0.520442921		-1.102724931
F		-1.820026259		-0.588233969		-1.871716029
F		2.732839851		-3.532776557		-0.493184688
F		-1.222844373		-3.583578257		-1.069455853
F		1.88346038		-1.409336452		1.193900824
F		0.828842324		-1.51761125		-1.468097697
F		0.112917543		-1.160319873		3.414709625
F		0.405142699		1.111639054		1.20850912
F		-0.943698717		-1.445644841		0.782035196
