12
-187.24475565
Al		0.352703453		-0.617311003		1.720883931
Al		2.324166893		-1.781121982		-0.511749265
Al		-0.8700409		-1.822144301		-0.9770872
F		3.45835698		-0.520694089		-1.102620199
F		-1.819873982		-0.588480824		-1.871562377
F		2.73279821		-3.532468587		-0.493198439
F		-1.222808298		-3.583269289		-1.069458282
F		1.883322259		-1.409277672		1.193724568
F		0.828811409		-1.517706233		-1.467877114
F		0.11295927		-1.16019444		3.414412139
F		0.405130794		1.111394082		1.208612433
F		-0.94351758		-1.445581961		0.78190545
