12
Properties=species:S:1:pos:R:3:forces:R:3 energy=-176.61733942 pbc="F F F"
Al    0.534717372    -2.404009211    -1.388843061    -2.593598    5.07495    10.517383
Al    1.99218553    -1.122166856    -0.530534824    -9.9063    -2.353847    6.278606
Al    -0.683410806    0.262889303    -1.497903283    -0.054932    -5.887483    10.413067
F    3.659666288    -0.148891216    -0.045857222999999996    1.024754    0.24212    -0.505286
F    -0.185585974    -4.097500493    -2.286046836    0.198869    -0.596897    -0.984014
F    2.261560038    -1.848945076    -2.5060259890000003    2.842528    -0.508886    -4.01207
F    1.617866695    0.749460339    -2.37679342    2.312727    1.77889    -3.990298
F    -1.404218422    1.576220931    -2.163192111    -0.087851    0.641217    -0.97223
F    -1.155054086    -0.8294100520000001    -1.093509569    4.622589    1.095179    -2.592355
F    -0.115626974    -1.023517709    -3.4147953810000002    0.786613    0.228555    -4.874897
F    0.24129439600000002    0.5405555980000001    -0.175769202    1.047802    -2.53634    -4.664454
F    1.162016134    -1.7593990099999999    -0.462617973    -0.1932    2.822542    -4.613453
