12
Properties=species:S:1:pos:R:3:forces:R:3 energy=-187.37114305 pbc="F F F"
Al    1.44581968    0.139804817    2.393592573    0.026306    -0.08734    -0.144467
Al    1.39022    1.052024    -0.168586    0.022559    0.021192    -0.004084
Al    -0.48427106200000003    0.7431012499999999    -2.2924422730000003    -0.057217    0.058304    0.15005
F    -2.056669672    -0.187395453    -2.404598106    -0.139013    -0.107653    0.026488
F    2.338769753    -0.358731953    0.7746964519999999    0.064466    -0.053235    0.010316
F    0.009756138999999997    1.72468929    -3.774525833    0.095777    0.118532    -0.238271
F    -0.22678481    1.9123937529999997    -0.813817549    -0.051322    0.065583    -0.012695
F    2.649651557    2.486764512    0.362659557    -0.004338    -0.004076    0.000785
F    1.096758239    -0.177191095    -1.607530754    0.111187    -0.128401    -0.020396
F    0.466882117    1.472938429    1.4819560390000002    -0.11719    0.122762    0.021484
F    2.435759469    0.8741120760000001    3.7324124370000002    0.165548    0.126966    0.190988
F    0.09268717499999998    -1.154541352    2.450931571    -0.116761    -0.132635    0.019801
