      12
SCF Done            -187.37114305
Al            1.312296680         0.014346817         2.428154573
Al            1.276784000         1.189243000        -0.083083000
Al           -0.348763062         0.870384250        -2.306567273
F            -1.805162672        -0.212908453        -2.147586106
F             2.198281753        -0.285722953         0.776555452
F             0.153807139         1.699104290        -3.852843833
F            -0.291842810         2.056264753        -0.825608549
F             2.587876557         2.420946512        -0.320355443
F             1.160140239        -0.041270095        -1.549721754
F             0.341668117         1.431682429         1.573896039
F             2.439688469         0.716891076         3.679452437
F             0.155163175        -1.357639352         2.742152571
