12
Properties=species:S:1:pos:R:3:forces:R:3 energy=-186.52601443 pbc="F F F"
Al    -0.220924038    0.9719675600000002    -1.835534736    0.35459    0.633182    0.220779
Al    -0.291172714    0.765669253    1.269242236    -0.103562    -0.211152    -0.02898
Al    -2.794037719    0.016522089000000018    -1.901740942    -0.201597    -0.355784    -0.290319
F    -3.3339150610000003    -0.007440392000000018    -3.642200308    -0.003483    0.020333    0.009456
F    -1.0638121569999999    -0.734979501    -1.951954045    -0.194671    -0.513393    -0.043067
F    -1.950754687    1.8276848030000001    -1.831791783    0.120756    0.264284    0.017288
F    -1.8636463249999997    0.316953139    0.430860624    -0.06427    -0.021539    -0.005569
F    0.695871527    1.237872643    -0.298263111    0.108461    0.02665    -0.162418
F    -0.36839877500000007    2.452684197    2.0856141470000003    -0.018446    0.346951    0.158475
F    0.675616715    -0.563819058    1.9441686450000002    0.099614    -0.156942    0.066904
F    -4.0504574920000005    -0.39335173    -0.625920765    -0.252207    -0.058397    0.237918
F    0.833785427    1.419691137    -3.239690029    0.154815    0.025807    -0.180466
