      12
SCF Done            -186.52601443
Al           -0.396834038         1.246867560        -1.811558736
Al           -0.467082714         1.040569253         1.293218236
Al           -2.969947719         0.291422089        -1.877764942
F            -3.481535061         0.223250608        -3.622080308
F            -1.211432157        -0.504288501        -1.931834045
F            -2.098374687         2.058375803        -1.811671783
F            -2.011266325         0.547644139         0.450980624
F             0.548251527         1.468563643        -0.278143111
F            -0.516018775         2.683375197         2.105734147
F             0.527996715        -0.333128058         1.964288645
F            -4.198077492        -0.162660730        -0.605800765
F             0.686165427         1.650382137        -3.219570029
