      12
SCF Done            -180.91351132
Al            0.374998393        -0.747735158         1.579343339
Al            2.133295365        -1.725883072        -0.455913497
Al           -0.704480181        -1.762328158        -0.869325743
F             3.329340307        -0.697265193        -1.028993580
F            -1.712823254        -0.762019888        -1.763544997
F             2.703524595        -3.315965694        -0.502865443
F            -1.197447566        -3.366064802        -1.071165920
F             1.786223197        -1.367955393         1.069816602
F             0.807078164        -1.584479282        -1.312807265
F             0.142293352        -1.072015163         3.205279489
F             0.396761571         0.939178699         1.281241536
F            -0.816178268        -1.401377383         0.690694014
