      12
SCF Done            -172.16130427
Al            0.374998395        -0.747735078         1.579343317
Al            2.133295363        -1.725883054        -0.455913490
Al           -0.704480182        -1.762328140        -0.869325736
F             3.329340311        -0.697265193        -1.028993603
F            -1.712823251        -0.762019889        -1.763545021
F             2.703524587        -3.315965677        -0.502865392
F            -1.197447573        -3.366064785        -1.071165869
F             1.786223196        -1.367955332         1.069816600
F             0.807078164        -1.584479282        -1.312807265
F             0.142293351        -1.072015041         3.205279481
F             0.396761579         0.939178766         1.281241472
F            -0.816178269        -1.401377321         0.690694012
