12
-186.35103317
Al		-1.700443641		2.559399699		-1.230409002
Al		-0.529439903		0.000392219		-2.345487669
Al		-2.203132596		-0.339150838		-0.517051925
F		-0.758951679		3.685400015		-0.160100743
F		-3.014927323		3.176766342		-2.31811
F		-1.377191871		-1.674976729		-1.720803245
F		-2.528405166		1.449713987		0.051446166
F		-3.251329247		-1.302936741		0.598926813
F		0.625184528		-0.516136179		-3.639013255
F		-0.333325011		1.895240657		-2.34829201
F		-2.453251793		0.474716594		-2.30598881
F		-0.304525382		0.15840395		-0.39923872
