12
-186.35103317
Al		-1.700282829		2.559430965		-1.230565926
Al		-0.52786943		0.000305504		-2.343899016
Al		-2.204883186		-0.339099232		-0.518464169
F		-0.76019466		3.685135991		-0.158709973
F		-3.01306363		3.177154386		-2.320132939
F		-1.377118548		-1.674958477		-1.720906574
F		-2.5303854		1.44975725		0.049969005
F		-3.25463987		-1.302817446		0.596083344
F		0.62833145		-0.51628584		-3.6360217
F		-0.331648653		1.895131622		-2.346465082
F		-2.451909677		0.474998411		-2.307464468
F		-0.306070943		0.15808058		-0.397548628
