12
-186.35103317
Al		-1.700264961		2.559434439		-1.230583362
Al		-0.527694933		0.000295869		-2.343722499
Al		-2.205077696		-0.339093498		-0.518621085
F		-0.760332769		3.685106655		-0.158555443
F		-3.012856553		3.177197502		-2.32035771
F		-1.377110401		-1.674956449		-1.720918055
F		-2.530605426		1.449762057		0.049804876
F		-3.255007717		-1.302804191		0.595767403
F		0.628681108		-0.516302469		-3.635689305
F		-0.331462391		1.895119507		-2.34626209
F		-2.451760553		0.475029724		-2.30762843
F		-0.306242672		0.15804465		-0.39736084
