12
-186.35103317
Al		-1.700247093		2.559437913		-1.230600798
Al		-0.527520436		0.000286234		-2.343545982
Al		-2.205272206		-0.339087764		-0.518778001
F		-0.760470878		3.685077319		-0.158400913
F		-3.012649476		3.177240618		-2.320582481
F		-1.377102254		-1.674954421		-1.720929536
F		-2.530825452		1.449766864		0.049640747
F		-3.255375564		-1.302790936		0.595451462
F		0.629030766		-0.516319098		-3.63535691
F		-0.331276129		1.895107392		-2.346059098
F		-2.451611429		0.475061037		-2.307792392
F		-0.306414401		0.15800872		-0.397173052
