12
-186.35103317
Al		-1.700193489		2.559448335		-1.230653106
Al		-0.526996945		0.000257329		-2.343016431
Al		-2.205855736		-0.339070562		-0.519248749
F		-0.760885205		3.684989311		-0.157937323
F		-3.012028245		3.177369966		-2.321256794
F		-1.377077813		-1.674948337		-1.720963979
F		-2.53148553		1.449781285		0.04914836
F		-3.256479105		-1.302751171		0.594503639
F		0.63007974		-0.516368985		-3.634359725
F		-0.330717343		1.895071047		-2.345450122
F		-2.451164057		0.475154976		-2.308284278
F		-0.306929588		0.15790093		-0.396609688
