12
-186.35103317
Al		-1.700139885		2.559458757		-1.230705414
Al		-0.526473454		0.000228424		-2.34248688
Al		-2.206439266		-0.33905336		-0.519719497
F		-0.761299532		3.684901303		-0.157473733
F		-3.011407014		3.177499314		-2.321931107
F		-1.377053372		-1.674942253		-1.720998422
F		-2.532145608		1.449795706		0.048655973
F		-3.257582646		-1.302711406		0.593555816
F		0.631128714		-0.516418872		-3.63336254
F		-0.330158557		1.895034702		-2.344841146
F		-2.450716685		0.475248915		-2.308776164
F		-0.307444775		0.15779314		-0.396046324
