12
-186.35103317
Al		-1.699996941		2.559486549		-1.230844902
Al		-0.525077478		0.000151344		-2.341074744
Al		-2.207995346		-0.339007488		-0.520974825
F		-0.762404404		3.684666615		-0.156237493
F		-3.009750398		3.177844242		-2.323729275
F		-1.376988196		-1.674926029		-1.72109027
F		-2.533905816		1.449834162		0.047342941
F		-3.260525422		-1.302605366		0.591028288
F		0.633925978		-0.516551904		-3.63070338
F		-0.328668461		1.894937782		-2.34321721
F		-2.449523693		0.475499419		-2.31008786
F		-0.308818607		0.1575057		-0.39454402
