12
-186.35103317
Al		-1.699925469		2.559500445		-1.230914646
Al		-0.52437949		0.000112804		-2.340368676
Al		-2.208773386		-0.338984552		-0.521602489
F		-0.76295684		3.684549271		-0.155619373
F		-3.00892209		3.178016706		-2.324628359
F		-1.376955608		-1.674917917		-1.721136194
F		-2.53478592		1.44985339		0.046686425
F		-3.26199681		-1.302552346		0.589764524
F		0.63532461		-0.51661842		-3.6293738
F		-0.327923413		1.894889322		-2.342405242
F		-2.448927197		0.475624671		-2.310743708
F		-0.309505523		0.15736198		-0.393792868
