12
-186.35103317
Al		-1.699907601		2.559503919		-1.230932082
Al		-0.524204993		0.000103169		-2.340192159
Al		-2.208967896		-0.338978818		-0.521759405
F		-0.763094949		3.684519935		-0.155464843
F		-3.008715013		3.178059822		-2.32485313
F		-1.376947461		-1.674915889		-1.721147675
F		-2.535005946		1.449858197		0.046522296
F		-3.262364657		-1.302539091		0.589448583
F		0.635674268		-0.516635049		-3.629041405
F		-0.327737151		1.894877207		-2.34220225
F		-2.448778073		0.475655984		-2.31090767
F		-0.309677252		0.15732605		-0.39360508
