12
-186.35103317
Al		-1.699871865		2.559510867		-1.230966954
Al		-0.523855999		8.3899e-05		-2.339839125
Al		-2.209356916		-0.33896735		-0.522073237
F		-0.763371167		3.684461263		-0.155155783
F		-3.008300859		3.178146054		-2.325302672
F		-1.376931167		-1.674911833		-1.721170637
F		-2.535445998		1.449867811		0.046194038
F		-3.263100351		-1.302512581		0.588816701
F		0.636373584		-0.516668307		-3.628376615
F		-0.327364627		1.894852977		-2.341796266
F		-2.448479825		0.47571861		-2.311235594
F		-0.31002071		0.15725419		-0.393229504
