12
-186.35103317
Al		-1.699853997		2.559514341		-1.23098439
Al		-0.523681502		7.4264e-05		-2.339662608
Al		-2.209551426		-0.338961616		-0.522230153
F		-0.763509276		3.684431927		-0.155001253
F		-3.008093782		3.17818917		-2.325527443
F		-1.37692302		-1.674909805		-1.721182118
F		-2.535666024		1.449872618		0.046029909
F		-3.263468198		-1.302499326		0.58850076
F		0.636723242		-0.516684936		-3.62804422
F		-0.327178365		1.894840862		-2.341593274
F		-2.448330701		0.475749923		-2.311399556
F		-0.310192439		0.15721826		-0.393041716
