12
-186.35103317
Al		-1.699836129		2.559517815		-1.231001826
Al		-0.523507005		6.4629e-05		-2.339486091
Al		-2.209745936		-0.338955882		-0.522387069
F		-0.763647385		3.684402591		-0.154846723
F		-3.007886705		3.178232286		-2.325752214
F		-1.376914873		-1.674907777		-1.721193599
F		-2.53588605		1.449877425		0.04586578
F		-3.263836045		-1.302486071		0.588184819
F		0.6370729		-0.516701565		-3.627711825
F		-0.326992103		1.894828747		-2.341390282
F		-2.448181577		0.475781236		-2.311563518
F		-0.310364168		0.15718233		-0.392853928
