12
-186.35103317
Al		-1.699603845		2.559562977		-1.231228494
Al		-0.521238544		-6.0626e-05		-2.33719137
Al		-2.212274566		-0.33888134		-0.524426977
F		-0.765442802		3.684021223		-0.152837833
F		-3.005194704		3.178792794		-2.328674237
F		-1.376808962		-1.674881413		-1.721342852
F		-2.538746388		1.449939916		0.043732103
F		-3.268618056		-1.302313756		0.584077586
F		0.641618454		-0.516917742		-3.62339069
F		-0.324570697		1.894671252		-2.338751386
F		-2.446242965		0.476188305		-2.313695024
F		-0.312596645		0.15671524		-0.390412684
