12
-186.35103317
Al		-1.699585977		2.559566451		-1.23124593
Al		-0.521064047		-7.0261e-05		-2.337014853
Al		-2.212469076		-0.338875606		-0.524583893
F		-0.765580911		3.683991887		-0.152683303
F		-3.004987627		3.17883591		-2.328899008
F		-1.376800815		-1.674879385		-1.721354333
F		-2.538966414		1.449944723		0.043567974
F		-3.268985903		-1.302300501		0.583761645
F		0.641968112		-0.516934371		-3.623058295
F		-0.324384435		1.894659137		-2.338548394
F		-2.446093841		0.476219618		-2.313858986
F		-0.312768374		0.15667931		-0.390224896
