12
-186.35103317
Al		-1.699514505		2.559580347		-1.231315674
Al		-0.520366059		-0.000108801		-2.336308785
Al		-2.213247116		-0.33885267		-0.525211557
F		-0.766133347		3.683874543		-0.152065183
F		-3.004159319		3.179008374		-2.329798092
F		-1.376768227		-1.674871273		-1.721400257
F		-2.539846518		1.449963951		0.042911458
F		-3.270457291		-1.302247481		0.582497881
F		0.643366744		-0.517000887		-3.621728715
F		-0.323639387		1.894610677		-2.337736426
F		-2.445497345		0.47634487		-2.314514834
F		-0.31345529		0.15653559		-0.389473744
