12
-186.35103317
Al		-1.699496637		2.559583821		-1.23133311
Al		-0.520191562		-0.000118436		-2.336132268
Al		-2.213441626		-0.338846936		-0.525368473
F		-0.766271456		3.683845207		-0.151910653
F		-3.003952242		3.17905149		-2.330022863
F		-1.37676008		-1.674869245		-1.721411738
F		-2.540066544		1.449968758		0.042747329
F		-3.270825138		-1.302234226		0.58218194
F		0.643716402		-0.517017516		-3.62139632
F		-0.323453125		1.894598562		-2.337533434
F		-2.445348221		0.476376183		-2.314678796
F		-0.313627019		0.15649966		-0.389285956
