12
-186.35103317
Al		-1.699478769		2.559587295		-1.231350546
Al		-0.520017065		-0.000128071		-2.335955751
Al		-2.213636136		-0.338841202		-0.525525389
F		-0.766409565		3.683815871		-0.151756123
F		-3.003745165		3.179094606		-2.330247634
F		-1.376751933		-1.674867217		-1.721423219
F		-2.54028657		1.449973565		0.0425832
F		-3.271192985		-1.302220971		0.581865999
F		0.64406606		-0.517034145		-3.621063925
F		-0.323266863		1.894586447		-2.337330442
F		-2.445199097		0.476407496		-2.314842758
F		-0.313798748		0.15646373		-0.389098168
