12
-186.35103317
Al		-1.699460901		2.559590769		-1.231367982
Al		-0.519842568		-0.000137706		-2.335779234
Al		-2.213830646		-0.338835468		-0.525682305
F		-0.766547674		3.683786535		-0.151601593
F		-3.003538088		3.179137722		-2.330472405
F		-1.376743786		-1.674865189		-1.7214347
F		-2.540506596		1.449978372		0.042419071
F		-3.271560832		-1.302207716		0.581550058
F		0.644415718		-0.517050774		-3.62073153
F		-0.323080601		1.894574332		-2.33712745
F		-2.445049973		0.476438809		-2.31500672
F		-0.313970477		0.1564278		-0.38891038
