12
-186.35103317
Al		-1.699407297		2.559601191		-1.23142029
Al		-0.519319077		-0.000166611		-2.335249683
Al		-2.214414176		-0.338818266		-0.526153053
F		-0.766962001		3.683698527		-0.151138003
F		-3.002916857		3.17926707		-2.331146718
F		-1.376719345		-1.674859105		-1.721469143
F		-2.541166674		1.449992793		0.041926684
F		-3.272664373		-1.302167951		0.580602235
F		0.645464692		-0.517100661		-3.619734345
F		-0.322521815		1.894537987		-2.336518474
F		-2.444602601		0.476532748		-2.315498606
F		-0.314485664		0.15632001		-0.388347016
