12
-186.35103317
Al		-1.700515113		2.559385803		-1.230339258
Al		-0.530137891		0.000430759		-2.346193737
Al		-2.202354556		-0.339173774		-0.516424261
F		-0.758399243		3.685517359		-0.160718863
F		-3.015755631		3.176593878		-2.317210916
F		-1.377224459		-1.674984841		-1.720757321
F		-2.527525062		1.449694759		0.052102682
F		-3.249857859		-1.302989761		0.600190577
F		0.623785896		-0.516069663		-3.640342835
F		-0.334070059		1.895289117		-2.349103978
F		-2.453848289		0.474591342		-2.305332962
F		-0.303838466		0.15854767		-0.399989872
