12
-186.35103317
Al		-1.699389429		2.559604665		-1.231437726
Al		-0.51914458		-0.000176246		-2.335073166
Al		-2.214608686		-0.338812532		-0.526309969
F		-0.76710011		3.683669191		-0.150983473
F		-3.00270978		3.179310186		-2.331371489
F		-1.376711198		-1.674857077		-1.721480624
F		-2.5413867		1.4499976		0.041762555
F		-3.27303222		-1.302154696		0.580286294
F		0.64581435		-0.51711729		-3.61940195
F		-0.322335553		1.894525872		-2.336315482
F		-2.444453477		0.476564061		-2.315662568
F		-0.314657393		0.15628408		-0.388159228
