12
-186.35103317
Al		-1.699317957		2.559618561		-1.23150747
Al		-0.518446592		-0.000214786		-2.334367098
Al		-2.215386726		-0.338789596		-0.526937633
F		-0.767652546		3.683551847		-0.150365353
F		-3.001881472		3.17948265		-2.332270573
F		-1.37667861		-1.674848965		-1.721526548
F		-2.542266804		1.450016828		0.041106039
F		-3.274503608		-1.302101676		0.57902253
F		0.647212982		-0.517183806		-3.61807237
F		-0.321590505		1.894477412		-2.335503514
F		-2.443856981		0.476689313		-2.316318416
F		-0.315344309		0.15614036		-0.387408076
