12
-186.35103317
Al		-1.699300089		2.559622035		-1.231524906
Al		-0.518272095		-0.000224421		-2.334190581
Al		-2.215581236		-0.338783862		-0.527094549
F		-0.767790655		3.683522511		-0.150210823
F		-3.001674395		3.179525766		-2.332495344
F		-1.376670463		-1.674846937		-1.721538029
F		-2.54248683		1.450021635		0.04094191
F		-3.274871455		-1.302088421		0.578706589
F		0.64756264		-0.517200435		-3.617739975
F		-0.321404243		1.894465297		-2.335300522
F		-2.443707857		0.476720626		-2.316482378
F		-0.315516038		0.15610443		-0.387220288
