12
-186.35103317
Al		-1.699282221		2.559625509		-1.231542342
Al		-0.518097598		-0.000234056		-2.334014064
Al		-2.215775746		-0.338778128		-0.527251465
F		-0.767928764		3.683493175		-0.150056293
F		-3.001467318		3.179568882		-2.332720115
F		-1.376662316		-1.674844909		-1.72154951
F		-2.542706856		1.450026442		0.040777781
F		-3.275239302		-1.302075166		0.578390648
F		0.647912298		-0.517217064		-3.61740758
F		-0.321217981		1.894453182		-2.33509753
F		-2.443558733		0.476751939		-2.31664634
F		-0.315687767		0.1560685		-0.3870325
