12
-186.35103317
Al		-1.699264353		2.559628983		-1.231559778
Al		-0.517923101		-0.000243691		-2.333837547
Al		-2.215970256		-0.338772394		-0.527408381
F		-0.768066873		3.683463839		-0.149901763
F		-3.001260241		3.179611998		-2.332944886
F		-1.376654169		-1.674842881		-1.721560991
F		-2.542926882		1.450031249		0.040613652
F		-3.275607149		-1.302061911		0.578074707
F		0.648261956		-0.517233693		-3.617075185
F		-0.321031719		1.894441067		-2.334894538
F		-2.443409609		0.476783252		-2.316810302
F		-0.315859496		0.15603257		-0.386844712
