12
-186.35103317
Al		-1.699246485		2.559632457		-1.231577214
Al		-0.517748604		-0.000253326		-2.33366103
Al		-2.216164766		-0.33876666		-0.527565297
F		-0.768204982		3.683434503		-0.149747233
F		-3.001053164		3.179655114		-2.333169657
F		-1.376646022		-1.674840853		-1.721572472
F		-2.543146908		1.450036056		0.040449523
F		-3.275974996		-1.302048656		0.577758766
F		0.648611614		-0.517250322		-3.61674279
F		-0.320845457		1.894428952		-2.334691546
F		-2.443260485		0.476814565		-2.316974264
F		-0.316031225		0.15599664		-0.386656924
