12
-186.35103317
Al		-1.700497245		2.559389277		-1.230356694
Al		-0.529963394		0.000421124		-2.34601722
Al		-2.202549066		-0.33916804		-0.516581177
F		-0.758537352		3.685488023		-0.160564333
F		-3.015548554		3.176636994		-2.317435687
F		-1.377216312		-1.674982813		-1.720768802
F		-2.527745088		1.449699566		0.051938553
F		-3.250225706		-1.302976506		0.599874636
F		0.624135554		-0.516086292		-3.64001044
F		-0.333883797		1.895277002		-2.348900986
F		-2.453699165		0.474622655		-2.305496924
F		-0.304010195		0.15851174		-0.399802084
