12
-186.35103317
Al		-1.699175013		2.559646353		-1.231646958
Al		-0.517050616		-0.000291866		-2.332954962
Al		-2.216942806		-0.338743724		-0.528192961
F		-0.768757418		3.683317159		-0.149129113
F		-3.000224856		3.179827578		-2.334068741
F		-1.376613434		-1.674832741		-1.721618396
F		-2.544027012		1.450055284		0.039793007
F		-3.277446384		-1.301995636		0.576495002
F		0.650010246		-0.517316838		-3.61541321
F		-0.320100409		1.894380492		-2.333879578
F		-2.442663989		0.476939817		-2.317630112
F		-0.316718141		0.15585292		-0.385905772
