12
-186.35103317
Al		-1.699157145		2.559649827		-1.231664394
Al		-0.516876119		-0.000301501		-2.332778445
Al		-2.217137316		-0.33873799		-0.528349877
F		-0.768895527		3.683287823		-0.148974583
F		-3.000017779		3.179870694		-2.334293512
F		-1.376605287		-1.674830713		-1.721629877
F		-2.544247038		1.450060091		0.039628878
F		-3.277814231		-1.301982381		0.576179061
F		0.650359904		-0.517333467		-3.615080815
F		-0.319914147		1.894368377		-2.333676586
F		-2.442514865		0.47697113		-2.317794074
F		-0.31688987		0.15581699		-0.385717984
