12
-186.35103317
Al		-1.699103541		2.559660249		-1.231716702
Al		-0.516352628		-0.000330406		-2.332248894
Al		-2.217720846		-0.338720788		-0.528820625
F		-0.769309854		3.683199815		-0.148510993
F		-2.999396548		3.180000042		-2.334967825
F		-1.376580846		-1.674824629		-1.72166432
F		-2.544907116		1.450074512		0.039136491
F		-3.278917772		-1.301942616		0.575231238
F		0.651408878		-0.517383354		-3.61408363
F		-0.319355361		1.894332032		-2.33306761
F		-2.442067493		0.477065069		-2.31828596
F		-0.317405057		0.1557092		-0.38515462
