12
-186.35103317
Al		-1.700479377		2.559392751		-1.23037413
Al		-0.529788897		0.000411489		-2.345840703
Al		-2.202743576		-0.339162306		-0.516738093
F		-0.758675461		3.685458687		-0.160409803
F		-3.015341477		3.17668011		-2.317660458
F		-1.377208165		-1.674980785		-1.720780283
F		-2.527965114		1.449704373		0.051774424
F		-3.250593553		-1.302963251		0.599558695
F		0.624485212		-0.516102921		-3.639678045
F		-0.333697535		1.895264887		-2.348697994
F		-2.453550041		0.474653968		-2.305660886
F		-0.304181924		0.15847581		-0.399614296
