12
-186.35103317
Al		-1.699014201		2.559677619		-1.231803882
Al		-0.515480143		-0.000378581		-2.331366309
Al		-2.218693396		-0.338692118		-0.529605205
F		-0.770000399		3.683053135		-0.147738343
F		-2.998361163		3.180215622		-2.33609168
F		-1.376540111		-1.674814489		-1.721721725
F		-2.546007246		1.450098547		0.038315846
F		-3.280757007		-1.301876341		0.573651533
F		0.653157168		-0.517466499		-3.612421655
F		-0.318424051		1.894271457		-2.33205265
F		-2.441321873		0.477221634		-2.31910577
F		-0.318263702		0.15552955		-0.38421568
