12
-186.35103317
Al		-1.700675925		2.559354537		-1.230182334
Al		-0.531708364		0.000517474		-2.34778239
Al		-2.200603966		-0.33922538		-0.515012017
F		-0.757156262		3.685781383		-0.162109633
F		-3.017619324		3.176205834		-2.315187977
F		-1.377297782		-1.675003093		-1.720653992
F		-2.525544828		1.449651496		0.053579843
F		-3.246547236		-1.303109056		0.603034046
F		0.620638974		-0.515920002		-3.64333439
F		-0.335746417		1.895398152		-2.350930906
F		-2.455190405		0.474309525		-2.303857304
F		-0.302292905		0.15887104		-0.401679964
