12
-186.35103317
Al		-1.700997549		2.559292005		-1.229868486
Al		-0.53484931		0.000690904		-2.350959696
Al		-2.197102786		-0.339328592		-0.512187529
F		-0.7546703		3.686309431		-0.164891173
F		-3.02134671		3.175429746		-2.311142099
F		-1.377444428		-1.675039597		-1.720447334
F		-2.52158436		1.44956497		0.056534165
F		-3.23992599		-1.303347646		0.608720984
F		0.61434513		-0.51562068		-3.6493175
F		-0.339099133		1.895616222		-2.354584762
F		-2.457874637		0.473745891		-2.300905988
F		-0.299201783		0.15951778		-0.405060148
