12
-186.35103317
Al		-1.701015417		2.559288531		-1.22985105
Al		-0.535023807		0.000700539		-2.351136213
Al		-2.196908276		-0.339334326		-0.512030613
F		-0.754532191		3.686338767		-0.165045703
F		-3.021553787		3.17538663		-2.310917328
F		-1.377452575		-1.675041625		-1.720435853
F		-2.521364334		1.449560163		0.056698294
F		-3.239558143		-1.303360901		0.609036925
F		0.613995472		-0.515604051		-3.649649895
F		-0.339285395		1.895628337		-2.354787754
F		-2.458023761		0.473714578		-2.300742026
F		-0.299030054		0.15955371		-0.405247936
