12
-186.35103317
Al		-1.701033285		2.559285057		-1.229833614
Al		-0.535198304		0.000710174		-2.35131273
Al		-2.196713766		-0.33934006		-0.511873697
F		-0.754394082		3.686368103		-0.165200233
F		-3.021760864		3.175343514		-2.310692557
F		-1.377460722		-1.675043653		-1.720424372
F		-2.521144308		1.449555356		0.056862423
F		-3.239190296		-1.303374156		0.609352866
F		0.613645814		-0.515587422		-3.64998229
F		-0.339471657		1.895640452		-2.354990746
F		-2.458172885		0.473683265		-2.300578064
F		-0.298858325		0.15958964		-0.405435724
