12
-186.35103317
Al		-1.701069021		2.559278109		-1.229798742
Al		-0.535547298		0.000729444		-2.351665764
Al		-2.196324746		-0.339351528		-0.511559865
F		-0.754117864		3.686426775		-0.165509293
F		-3.022175018		3.175257282		-2.310243015
F		-1.377477016		-1.675047709		-1.72040141
F		-2.520704256		1.449545742		0.057190681
F		-3.238454602		-1.303400666		0.609984748
F		0.612946498		-0.515554164		-3.65064708
F		-0.339844181		1.895664682		-2.35539673
F		-2.458471133		0.473620639		-2.30025014
F		-0.298514867		0.1596615		-0.4058113
