12
-186.35103317
Al		-1.701104757		2.559271161		-1.22976387
Al		-0.535896292		0.000748714		-2.352018798
Al		-2.195935726		-0.339362996		-0.511246033
F		-0.753841646		3.686485447		-0.165818353
F		-3.022589172		3.17517105		-2.309793473
F		-1.37749331		-1.675051765		-1.720378448
F		-2.520264204		1.449536128		0.057518939
F		-3.237718908		-1.303427176		0.61061663
F		0.612247182		-0.515520906		-3.65131187
F		-0.340216705		1.895688912		-2.355802714
F		-2.458769381		0.473558013		-2.299922216
F		-0.298171409		0.15973336		-0.406186876
