12
-186.35103317
Al		-1.701140493		2.559264213		-1.229728998
Al		-0.536245286		0.000767984		-2.352371832
Al		-2.195546706		-0.339374464		-0.510932201
F		-0.753565428		3.686544119		-0.166127413
F		-3.023003326		3.175084818		-2.309343931
F		-1.377509604		-1.675055821		-1.720355486
F		-2.519824152		1.449526514		0.057847197
F		-3.236983214		-1.303453686		0.611248512
F		0.611547866		-0.515487648		-3.65197666
F		-0.340589229		1.895713142		-2.356208698
F		-2.459067629		0.473495387		-2.299594292
F		-0.297827951		0.15980522		-0.406562452
