12
-186.35103317
Al		-1.701194097		2.559253791		-1.22967669
Al		-0.536768777		0.000796889		-2.352901383
Al		-2.194963176		-0.339391666		-0.510461453
F		-0.753151101		3.686632127		-0.166591003
F		-3.023624557		3.17495547		-2.308669618
F		-1.377534045		-1.675061905		-1.720321043
F		-2.519164074		1.449512093		0.058339584
F		-3.235879673		-1.303493451		0.612196335
F		0.610498892		-0.515437761		-3.652973845
F		-0.341148015		1.895749487		-2.356817674
F		-2.459515001		0.473401448		-2.299102406
F		-0.297312764		0.15991301		-0.407125816
