12
-186.35103317
Al		-1.700711661		2.559347589		-1.230147462
Al		-0.532057358		0.000536744		-2.348135424
Al		-2.200214946		-0.339236848		-0.514698185
F		-0.756880044		3.685840055		-0.162418693
F		-3.018033478		3.176119602		-2.314738435
F		-1.377314076		-1.675007149		-1.72063103
F		-2.525104776		1.449641882		0.053908101
F		-3.245811542		-1.303135566		0.603665928
F		0.619939658		-0.515886744		-3.64399918
F		-0.336118941		1.895422382		-2.35133689
F		-2.455488653		0.474246899		-2.30352938
F		-0.301949447		0.1589429		-0.40205554
