12
-186.35103317
Al		-1.701408513		2.559212103		-1.229467458
Al		-0.538862741		0.000912509		-2.355019587
Al		-2.192629056		-0.339460474		-0.508578461
F		-0.751493793		3.686984159		-0.168445363
F		-3.026109481		3.174438078		-2.305972366
F		-1.377631809		-1.675086241		-1.720183271
F		-2.516523762		1.449454409		0.060309132
F		-3.231465509		-1.303652511		0.615987627
F		0.606302996		-0.515238213		-3.656962585
F		-0.343383159		1.895894867		-2.359253578
F		-2.461304489		0.473025692		-2.297134862
F		-0.295252016		0.16034417		-0.409379272
