12
-186.35103317
Al		-1.701444249		2.559205155		-1.229432586
Al		-0.539211735		0.000931779		-2.355372621
Al		-2.192240036		-0.339471942		-0.508264629
F		-0.751217575		3.687042831		-0.168754423
F		-3.026523635		3.174351846		-2.305522824
F		-1.377648103		-1.675090297		-1.720160309
F		-2.51608371		1.449444795		0.06063739
F		-3.230729815		-1.303679021		0.616619509
F		0.60560368		-0.515204955		-3.657627375
F		-0.343755683		1.895919097		-2.359659562
F		-2.461602737		0.472963066		-2.296806938
F		-0.294908558		0.16041603		-0.409754848
