12
-186.35103317
Al		-1.701462117		2.559201681		-1.22941515
Al		-0.539386232		0.000941414		-2.355549138
Al		-2.192045526		-0.339477676		-0.508107713
F		-0.751079466		3.687072167		-0.168908953
F		-3.026730712		3.17430873		-2.305298053
F		-1.37765625		-1.675092325		-1.720148828
F		-2.515863684		1.449439988		0.060801519
F		-3.230361968		-1.303692276		0.61693545
F		0.605254022		-0.515188326		-3.65795977
F		-0.343941945		1.895931212		-2.359862554
F		-2.461751861		0.472931753		-2.296642976
F		-0.294736829		0.16045196		-0.409942636
