12
-186.35103317
Al		-1.701694401		2.559156519		-1.229188482
Al		-0.541654693		0.001066669		-2.357843859
Al		-2.189516896		-0.339552218		-0.506067805
F		-0.749284049		3.687453535		-0.170917843
F		-3.029422713		3.173748222		-2.30237603
F		-1.377762161		-1.675118689		-1.719999575
F		-2.513003346		1.449377497		0.062935196
F		-3.225579957		-1.303864591		0.621042683
F		0.600708468		-0.514972149		-3.662280905
F		-0.346363351		1.896088707		-2.36250145
F		-2.463690473		0.472524684		-2.29451147
F		-0.292504352		0.16091905		-0.41238388
