12
-186.35103317
Al		-1.701783741		2.559139149		-1.229101302
Al		-0.542527178		0.001114844		-2.358726444
Al		-2.188544346		-0.339580888		-0.505283225
F		-0.748593504		3.687600215		-0.171690493
F		-3.030458098		3.173532642		-2.301252175
F		-1.377802896		-1.675128829		-1.71994217
F		-2.511903216		1.449353462		0.063755841
F		-3.223740722		-1.303930866		0.622622388
F		0.598960178		-0.514889004		-3.66394288
F		-0.347294661		1.896149282		-2.36351641
F		-2.464436093		0.472368119		-2.29369166
F		-0.291645707		0.1610987		-0.41332282
