12
-186.35103317
Al		-1.701801609		2.559135675		-1.229083866
Al		-0.542701675		0.001124479		-2.358902961
Al		-2.188349836		-0.339586622		-0.505126309
F		-0.748455395		3.687629551		-0.171845023
F		-3.030665175		3.173489526		-2.301027404
F		-1.377811043		-1.675130857		-1.719930689
F		-2.51168319		1.449348655		0.06391997
F		-3.223372875		-1.303944121		0.622938329
F		0.59861052		-0.514872375		-3.664275275
F		-0.347480923		1.896161397		-2.363719402
F		-2.464585217		0.472336806		-2.293527698
F		-0.291473978		0.16113463		-0.413510608
