12
-186.35103317
Al		-1.701819477		2.559132201		-1.22906643
Al		-0.542876172		0.001134114		-2.359079478
Al		-2.188155326		-0.339592356		-0.504969393
F		-0.748317286		3.687658887		-0.171999553
F		-3.030872252		3.17344641		-2.300802633
F		-1.37781919		-1.675132885		-1.719919208
F		-2.511463164		1.449343848		0.064084099
F		-3.223005028		-1.303957376		0.62325427
F		0.598260862		-0.514855746		-3.66460767
F		-0.347667185		1.896173512		-2.363922394
F		-2.464734341		0.472305493		-2.293363736
F		-0.291302249		0.16117056		-0.413698396
