12
-186.35103317
Al		-1.701837345		2.559128727		-1.229048994
Al		-0.543050669		0.001143749		-2.359255995
Al		-2.187960816		-0.33959809		-0.504812477
F		-0.748179177		3.687688223		-0.172154083
F		-3.031079329		3.173403294		-2.300577862
F		-1.377827337		-1.675134913		-1.719907727
F		-2.511243138		1.449339041		0.064248228
F		-3.222637181		-1.303970631		0.623570211
F		0.597911204		-0.514839117		-3.664940065
F		-0.347853447		1.896185627		-2.364125386
F		-2.464883465		0.47227418		-2.293199774
F		-0.29113052		0.16120649		-0.413886184
