12
-186.35103317
Al		-1.701855213		2.559125253		-1.229031558
Al		-0.543225166		0.001153384		-2.359432512
Al		-2.187766306		-0.339603824		-0.504655561
F		-0.748041068		3.687717559		-0.172308613
F		-3.031286406		3.173360178		-2.300353091
F		-1.377835484		-1.675136941		-1.719896246
F		-2.511023112		1.449334234		0.064412357
F		-3.222269334		-1.303983886		0.623886152
F		0.597561546		-0.514822488		-3.66527246
F		-0.348039709		1.896197742		-2.364328378
F		-2.465032589		0.472242867		-2.293035812
F		-0.290958791		0.16124242		-0.414073972
