12
-186.35103317
Al		-1.701873081		2.559121779		-1.229014122
Al		-0.543399663		0.001163019		-2.359609029
Al		-2.187571796		-0.339609558		-0.504498645
F		-0.747902959		3.687746895		-0.172463143
F		-3.031493483		3.173317062		-2.30012832
F		-1.377843631		-1.675138969		-1.719884765
F		-2.510803086		1.449329427		0.064576486
F		-3.221901487		-1.303997141		0.624202093
F		0.597211888		-0.514805859		-3.665604855
F		-0.348225971		1.896209857		-2.36453137
F		-2.465181713		0.472211554		-2.29287185
F		-0.290787062		0.16127835		-0.41426176
