12
-186.35103317
Al		-1.701890949		2.559118305		-1.228996686
Al		-0.54357416		0.001172654		-2.359785546
Al		-2.187377286		-0.339615292		-0.504341729
F		-0.74776485		3.687776231		-0.172617673
F		-3.03170056		3.173273946		-2.299903549
F		-1.377851778		-1.675140997		-1.719873284
F		-2.51058306		1.44932462		0.064740615
F		-3.22153364		-1.304010396		0.624518034
F		0.59686223		-0.51478923		-3.66593725
F		-0.348412233		1.896221972		-2.364734362
F		-2.465330837		0.472180241		-2.292707888
F		-0.290615333		0.16131428		-0.414449548
