12
-186.35103317
Al		-1.701926685		2.559111357		-1.228961814
Al		-0.543923154		0.001191924		-2.36013858
Al		-2.186988266		-0.33962676		-0.504027897
F		-0.747488632		3.687834903		-0.172926733
F		-3.032114714		3.173187714		-2.299454007
F		-1.377868072		-1.675145053		-1.719850322
F		-2.510143008		1.449315006		0.065068873
F		-3.220797946		-1.304036906		0.625149916
F		0.596162914		-0.514755972		-3.66660204
F		-0.348784757		1.896246202		-2.365140346
F		-2.465629085		0.472117615		-2.292379964
F		-0.290271875		0.16138614		-0.414825124
