12
-186.35103317
Al		-1.701980289		2.559100935		-1.228909506
Al		-0.544446645		0.001220829		-2.360668131
Al		-2.186404736		-0.339643962		-0.503557149
F		-0.747074305		3.687922911		-0.173390323
F		-3.032735945		3.173058366		-2.298779694
F		-1.377892513		-1.675151137		-1.719815879
F		-2.50948293		1.449300585		0.06556126
F		-3.219694405		-1.304076671		0.626097739
F		0.59511394		-0.514706085		-3.667599225
F		-0.349343543		1.896282547		-2.365749322
F		-2.466076457		0.472023676		-2.291888078
F		-0.289756688		0.16149393		-0.415388488
