12
-186.35103317
Al		-1.702051761		2.559087039		-1.228839762
Al		-0.545144633		0.001259369		-2.361374199
Al		-2.185626696		-0.339666898		-0.502929485
F		-0.746521869		3.688040255		-0.174008443
F		-3.033564253		3.172885902		-2.29788061
F		-1.377925101		-1.675159249		-1.719769955
F		-2.508602826		1.449281357		0.066217776
F		-3.218223017		-1.304129691		0.627361503
F		0.593715308		-0.514639569		-3.668928805
F		-0.350088591		1.896331007		-2.36656129
F		-2.466672953		0.471898424		-2.29123223
F		-0.289069772		0.16163765		-0.41613964
