12
-186.35103317
Al		-1.702087497		2.559080091		-1.22880489
Al		-0.545493627		0.001278639		-2.361727233
Al		-2.185237676		-0.339678366		-0.502615653
F		-0.746245651		3.688098927		-0.174317503
F		-3.033978407		3.17279967		-2.297431068
F		-1.377941395		-1.675163305		-1.719746993
F		-2.508162774		1.449271743		0.066546034
F		-3.217487323		-1.304156201		0.627993385
F		0.593015992		-0.514606311		-3.669593595
F		-0.350461115		1.896355237		-2.366967274
F		-2.466971201		0.471835798		-2.290904306
F		-0.288726314		0.16170951		-0.416515216
