12
-186.35103317
Al		-1.702105365		2.559076617		-1.228787454
Al		-0.545668124		0.001288274		-2.36190375
Al		-2.185043166		-0.3396841		-0.502458737
F		-0.746107542		3.688128263		-0.174472033
F		-3.034185484		3.172756554		-2.297206297
F		-1.377949542		-1.675165333		-1.719735512
F		-2.507942748		1.449266936		0.066710163
F		-3.217119476		-1.304169456		0.628309326
F		0.592666334		-0.514589682		-3.66992599
F		-0.350647377		1.896367352		-2.367170266
F		-2.467120325		0.471804485		-2.290740344
F		-0.288554585		0.16174544		-0.416703004
