12
-186.35103317
Al		-1.702123233		2.559073143		-1.228770018
Al		-0.545842621		0.001297909		-2.362080267
Al		-2.184848656		-0.339689834		-0.502301821
F		-0.745969433		3.688157599		-0.174626563
F		-3.034392561		3.172713438		-2.296981526
F		-1.377957689		-1.675167361		-1.719724031
F		-2.507722722		1.449262129		0.066874292
F		-3.216751629		-1.304182711		0.628625267
F		0.592316676		-0.514573053		-3.670258385
F		-0.350833639		1.896379467		-2.367373258
F		-2.467269449		0.471773172		-2.290576382
F		-0.288382856		0.16178137		-0.416890792
