12
-186.35103317
Al		-1.702141101		2.559069669		-1.228752582
Al		-0.546017118		0.001307544		-2.362256784
Al		-2.184654146		-0.339695568		-0.502144905
F		-0.745831324		3.688186935		-0.174781093
F		-3.034599638		3.172670322		-2.296756755
F		-1.377965836		-1.675169389		-1.71971255
F		-2.507502696		1.449257322		0.067038421
F		-3.216383782		-1.304195966		0.628941208
F		0.591967018		-0.514556424		-3.67059078
F		-0.351019901		1.896391582		-2.36757625
F		-2.467418573		0.471741859		-2.29041242
F		-0.288211127		0.1618173		-0.41707858
