12
-186.35103317
Al		-1.702212573		2.559055773		-1.228682838
Al		-0.546715106		0.001346084		-2.362962852
Al		-2.183876106		-0.339718504		-0.501517241
F		-0.745278888		3.688304279		-0.175399213
F		-3.035427946		3.172497858		-2.295857671
F		-1.377998424		-1.675177501		-1.719666626
F		-2.506622592		1.449238094		0.067694937
F		-3.214912394		-1.304248986		0.630204972
F		0.590568386		-0.514489908		-3.67192036
F		-0.351764949		1.896440042		-2.368388218
F		-2.468015069		0.471616607		-2.289756572
F		-0.287524211		0.16196102		-0.417829732
