12
-187.38518821
Al		1.30750018		0.069754017		2.444153873
Al		1.2732338		1.1914817		-0.0910793
Al		-0.340073762		0.81252325		-2.313799873
F		-1.681650972		-0.395232953		-2.194385106
F		2.073662553		-0.341319353		0.752981552
F		0.016531239		1.79381579		-3.799407533
F		-0.37056841		1.922446853		-0.767741849
F		2.577290657		2.427621712		-0.344198343
F		1.254049039		0.033385005		-1.625232554
F		0.449043017		1.547740529		1.610472639
F		2.570774569		0.626083976		3.612073237
F		0.050080775		-1.186935852		2.830460371
