12
-187.38518821
Al		1.20802618		-0.013480783		2.442882673
Al		1.2874346		1.1825269		-0.0590941
Al		-0.256168962		0.90557525		-2.347595473
F		-1.637271772		-0.293894953		-2.291811106
F		2.031709353		-0.384505753		0.764781152
F		0.148734839		1.90119779		-3.792774733
F		-0.32449401		1.963034453		-0.770258649
F		2.619634257		2.400920912		-0.248826743
F		1.288993839		0.064122605		-1.627071354
F		0.418219417		1.514404129		1.621594239
F		2.463332169		0.503088376		3.661210037
F		-0.068015625		-1.241789852		2.761851171
