12
-187.38518821
Al		1.05881518		-0.138332983		2.440975873
Al		1.3087358		1.1690947		-0.0111163
Al		-0.130311762		1.04515325		-2.398288873
F		-1.570702972		-0.141887953		-2.437950106
F		1.968779553		-0.449285353		0.782480552
F		0.347040239		2.06227079		-3.782825533
F		-0.25538241		2.023915853		-0.774033849
F		2.683149657		2.360869712		-0.105769343
F		1.341411039		0.110229005		-1.629829554
F		0.371984017		1.464399529		1.638276639
F		2.302168569		0.318594976		3.734915237
F		-0.245160225		-1.324070852		2.658937371
