12
-187.38518821
Al		1.50644818		0.236223617		2.446696273
Al		1.2448322		1.2093913		-0.1550497
Al		-0.507883362		0.62641925		-2.246208673
F		-1.770409372		-0.597908953		-1.999533106
F		2.157568953		-0.254946553		0.729382352
F		-0.247875961		1.57905179		-3.812673133
F		-0.46271721		1.841271653		-0.762708249
F		2.492603457		2.481023312		-0.534941543
F		1.184159439		-0.028090195		-1.621554954
F		0.510690217		1.614413329		1.588229439
F		2.785659369		0.872075176		3.513799637
F		0.286273575		-1.077227852		2.967678771
