12
-187.38518821
Al		1.10855218		-0.096715583		2.441611473
Al		1.3016354		1.1735721		-0.0271089
Al		-0.172264162		0.99862725		-2.381391073
F		-1.592892572		-0.192556953		-2.389237106
F		1.989756153		-0.427692153		0.776580752
F		0.280938439		2.00857979		-3.786141933
F		-0.27841961		2.003622053		-0.772775449
F		2.661977857		2.374220112		-0.153455143
F		1.323938639		0.094860205		-1.628910154
F		0.387395817		1.481067729		1.632715839
F		2.355889769		0.380092776		3.710346837
F		-0.186112025		-1.296643852		2.693241971
