12
-187.38518821
Al		1.08368368		-0.117524283		2.441293673
Al		1.3051856		1.1713334		-0.0191126
Al		-0.151287962		1.02189025		-2.389839973
F		-1.581797772		-0.167222453		-2.413593606
F		1.979267853		-0.438488753		0.779530652
F		0.313989339		2.03542529		-3.784483733
F		-0.26690101		2.013768953		-0.773404649
F		2.672563757		2.367544912		-0.129612243
F		1.332674839		0.102544605		-1.629369854
F		0.379689917		1.472733629		1.635496239
F		2.329029169		0.349343876		3.722631037
F		-0.215636125		-1.310357352		2.676089671
