12
-187.38518821
Al		1.43184268		0.173797517		2.445742873
Al		1.2554828		1.2026752		-0.1310608
Al		-0.444954762		0.69620825		-2.271555373
F		-1.737124972		-0.521905453		-2.072602606
F		2.126104053		-0.287336353		0.738232052
F		-0.148723261		1.65958829		-3.807698533
F		-0.42816141		1.871712353		-0.764595849
F		2.524361157		2.460997712		-0.463412843
F		1.210368039		-0.005036995		-1.622934054
F		0.487572517		1.589411029		1.596570639
F		2.705077569		0.779828476		3.550652237
F		0.197701275		-1.118368352		2.916221871
