12
-187.38518821
Al		1.33236868		0.090562717		2.444471673
Al		1.2696836		1.1937204		-0.0990756
Al		-0.361049962		0.78926025		-2.305350973
F		-1.692745772		-0.420567453		-2.170028606
F		2.084150853		-0.330522753		0.750031652
F		-0.016519661		1.76697029		-3.801065733
F		-0.38208701		1.912299953		-0.767112649
F		2.566704757		2.434296912		-0.368041243
F		1.245312839		0.025700605		-1.624772854
F		0.456748917		1.556074629		1.607692239
F		2.597635169		0.656832876		3.599789037
F		0.079604875		-1.173222352		2.847612671
