12
-187.38518821
Al		1.18315768		-0.034289483		2.442564873
Al		1.2909848		1.1802882		-0.0510978
Al		-0.235192762		0.92883825		-2.356044373
F		-1.626176972		-0.268560453		-2.316167606
F		2.021221053		-0.395302353		0.767731052
F		0.181785739		1.92804329		-3.791116533
F		-0.31297541		1.973181353		-0.770887849
F		2.630220157		2.394245712		-0.224983843
F		1.297730039		0.071807005		-1.627531054
F		0.410513517		1.506070029		1.624374639
F		2.436471569		0.472339476		3.673494237
F		-0.097539725		-1.255503352		2.744698871
