12
-187.38518821
Al		1.23289468		0.007327917		2.443200473
Al		1.2838844		1.1847656		-0.0670904
Al		-0.277145162		0.88231225		-2.339146573
F		-1.648366572		-0.319229453		-2.267454606
F		2.042197653		-0.373709153		0.761831252
F		0.115683939		1.87435229		-3.794432933
F		-0.33601261		1.952887553		-0.769629449
F		2.609048357		2.407596112		-0.272669643
F		1.280257639		0.056438205		-1.626611654
F		0.425925317		1.522738229		1.618813839
F		2.490192769		0.533837276		3.648925837
F		-0.038491525		-1.228076352		2.779003471
