12
-187.38518821
Al		1.45671118		0.194606217		2.446060673
Al		1.2519326		1.2049139		-0.1390571
Al		-0.465930962		0.67294525		-2.263106473
F		-1.748219772		-0.547239953		-2.048246106
F		2.136592353		-0.276539753		0.735282152
F		-0.181774161		1.63274279		-3.809356733
F		-0.43968001		1.861565453		-0.763966649
F		2.513775257		2.467672912		-0.487255743
F		1.201631839		-0.012721395		-1.622474354
F		0.495278417		1.597745129		1.593790239
F		2.731938169		0.810577376		3.538368037
F		0.227225375		-1.104654852		2.933374171
