12
-187.38518821
Al		1.15828918		-0.055098183		2.442247073
Al		1.294535		1.1780495		-0.0431015
Al		-0.214216562		0.95210125		-2.364493273
F		-1.615082172		-0.243225953		-2.340524106
F		2.010732753		-0.406098953		0.770680952
F		0.214836639		1.95488879		-3.789458333
F		-0.30145681		1.983328253		-0.771517049
F		2.640806057		2.387570512		-0.201140943
F		1.306466239		0.079491405		-1.627990754
F		0.402807617		1.497735929		1.627155039
F		2.409610969		0.441590576		3.685778437
F		-0.127063825		-1.269216852		2.727546571
