      12
SCF Done            -185.24365850
Al           -0.106655657         1.686556096         2.413152521
Al            2.492341096         2.617025025         1.700313575
Al            1.426619658         2.698463081        -0.672278653
F             0.992990852         3.155670519         2.858504332
F            -1.639865947         2.728443543         2.166048595
F            -0.524997960        -0.098606218         2.744598760
F             2.012933369         0.848746585         1.875367734
F             3.014744342         1.808617872        -0.003971454
F             1.053156714         3.024463952        -2.429877304
F             1.792824368         4.034934087         0.738539265
F             4.043720466         3.092218611         2.421810668
F            -0.112416900         1.751543868        -0.035374995
