12
-186.35103317
Al		-1.690369761		2.55164902		-1.222287691
Al		-0.537417855		0.006952106		-2.356901574
Al		-2.212082476		-0.333783618		-0.519277437
F		-0.670982141		3.566000736		-0.105215857
F		-2.993076247		3.253673093		-2.279300092
F		-1.29994358		-1.679202627		-1.650976761
F		-2.621684362		1.450457583		0.001751762
F		-3.227544563		-1.316761432		0.611092053
F		0.634468198		-0.530976741		-3.626728104
F		-0.396313825		1.903242614		-2.440167131
F		-2.475253757		0.415174351		-2.333717528
F		-0.338225368		0.279606539		-0.411337008
