12
-186.35103317
Al		-1.666405261		2.53365342		-1.203785291
Al		-0.551554355		0.022011206		-2.379003374
Al		-2.237957976		-0.321112918		-0.528497837
F		-0.469264541		3.286649636		0.026815343
F		-2.936775247		3.434228993		-2.194512592
F		-1.11948848		-1.689011027		-1.488342961
F		-2.844982962		1.452316083		-0.118414438
F		-3.181488763		-1.348678632		0.631368253
F		0.665104398		-0.566031341		-3.589531504
F		-0.538506925		1.921602914		-2.649332031
F		-2.522764157		0.277046151		-2.402626228
F		-0.421266368		0.561490239		-0.434746408
