12
-186.35103317
Al		-1.680099261		2.54393662		-1.214358091
Al		-0.543476355		0.013406006		-2.366373774
Al		-2.223171976		-0.328353318		-0.523229037
F		-0.584531741		3.446278836		-0.048631057
F		-2.968947247		3.331054193		-2.242962592
F		-1.22260568		-1.683406227		-1.581276561
F		-2.717383762		1.451254083		-0.049748038
F		-3.207806363		-1.330440232		0.619781853
F		0.647597998		-0.546000141		-3.610786704
F		-0.457253725		1.911111314		-2.529809231
F		-2.495615357		0.355976551		-2.363249828
F		-0.373814368		0.400413839		-0.421369608
