12
-186.35103317
Al		-1.728028189		2.579927885		-1.251362806
Al		-0.51520337		-0.016712196		-2.322170956
Al		-2.171420986		-0.353694712		-0.504788249
F		-0.98796688		4.004981111		-0.312693373
F		-3.08154917		2.969942466		-2.412537519
F		-1.583515888		-1.663789437		-1.906544154
F		-2.27078648		1.44753711		0.190585185
F		-3.29991813		-1.266605746		0.579229364
F		0.58632549		-0.47589086		-3.68518
F		-0.172867493		1.874390722		-2.111479322
F		-2.400594557		0.632232951		-2.225432428
F		-0.207732363		-0.16335362		-0.374550788
