12
-186.35103317
Al		-1.686946261		2.54907822		-1.219644491
Al		-0.539437355		0.009103406		-2.360058974
Al		-2.215778976		-0.331973518		-0.520594637
F		-0.642165341		3.526093436		-0.086354257
F		-2.985033247		3.279466793		-2.267187592
F		-1.27416428		-1.680603827		-1.627743361
F		-2.653584162		1.450723083		-0.015414838
F		-3.220965163		-1.321321032		0.613988653
F		0.638844798		-0.535984541		-3.621414304
F		-0.416627125		1.905865514		-2.470047831
F		-2.482040957		0.395441751		-2.343561628
F		-0.350088368		0.319875639		-0.414681208
