12
-186.35103317
Al		-1.680099189		2.543936685		-1.214358006
Al		-0.54347637		0.013406004		-2.366373156
Al		-2.223171986		-0.328353312		-0.523229049
F		-0.58453168		3.446278911		-0.048630973
F		-2.96894717		3.331054266		-2.242962519
F		-1.222605688		-1.683406237		-1.581276554
F		-2.71738368		1.45125411		-0.049748615
F		-3.20780653		-1.330440146		0.619781764
F		0.64759789		-0.54600006		-3.6107868
F		-0.457253693		1.911111322		-2.529809122
F		-2.495615357		0.355976551		-2.363249828
F		-0.373814363		0.40041378		-0.421369588
