12
-186.35103317
Al		-1.673252189		2.538795085		-1.209071606
Al		-0.54751537		0.017708604		-2.372687756
Al		-2.230564986		-0.324733112		-0.525863449
F		-0.52689808		3.366464311		-0.010907773
F		-2.95286117		3.382641666		-2.218737519
F		-1.171047088		-1.686208637		-1.534809754
F		-2.78118328		1.45178511		-0.084082015
F		-3.19464773		-1.339559346		0.625574964
F		0.65635109		-0.55601566		-3.6001592
F		-0.497880293		1.916357122		-2.589570522
F		-2.509189757		0.316511351		-2.382938028
F		-0.397540363		0.48095198		-0.428057988
