12
-186.35103317
Al		-1.666405189		2.533653485		-1.203785206
Al		-0.55155437		0.022011204		-2.379002356
Al		-2.237957986		-0.321112912		-0.528497849
F		-0.46926448		3.286649711		0.026815427
F		-2.93677517		3.434229066		-2.194512519
F		-1.119488488		-1.689011037		-1.488342954
F		-2.84498288		1.45231611		-0.118415415
F		-3.18148893		-1.348678546		0.631368164
F		0.66510429		-0.56603126		-3.5895316
F		-0.538506893		1.921602922		-2.649331922
F		-2.522764157		0.277046151		-2.402626228
F		-0.421266363		0.56149018		-0.434746388
12
-186.35103317
Al		-1.673252189		2.538795085		-1.209071606
Al		-0.54751537		0.017708604		-2.372687756
Al		-2.230564986		-0.324733112		-0.525863449
F		-0.52689808		3.366464311		-0.010907773
F		-2.95286117		3.382641666		-2.218737519
F		-1.171047088		-1.686208637		-1.534809754
F		-2.78118328		1.45178511		-0.084082015
F		-3.19464773		-1.339559346		0.625574964
F		0.65635109		-0.55601566		-3.6001592
F		-0.497880293		1.916357122		-2.589570522
F		-2.509189757		0.316511351		-2.382938028
F		-0.397540363		0.48095198		-0.428057988
12
-186.35103317
Al		-1.680099189		2.543936685		-1.214358006
Al		-0.54347637		0.013406004		-2.366373156
Al		-2.223171986		-0.328353312		-0.523229049
F		-0.58453168		3.446278911		-0.048630973
F		-2.96894717		3.331054266		-2.242962519
F		-1.222605688		-1.683406237		-1.581276554
F		-2.71738368		1.45125411		-0.049748615
F		-3.20780653		-1.330440146		0.619781764
F		0.64759789		-0.54600006		-3.6107868
F		-0.457253693		1.911111322		-2.529809122
F		-2.495615357		0.355976551		-2.363249828
F		-0.373814363		0.40041378		-0.421369588
12
-186.35103317
Al		-1.686946189		2.549078285		-1.219644406
Al		-0.53943737		0.009103404		-2.360058556
Al		-2.215778986		-0.331973512		-0.520594649
F		-0.64216528		3.526093511		-0.086354173
F		-2.98503317		3.279466866		-2.267187519
F		-1.274164288		-1.680603837		-1.627743354
F		-2.65358408		1.45072311		-0.015415215
F		-3.22096533		-1.321320946		0.613988564
F		0.63884469		-0.53598446		-3.6214144
F		-0.416627093		1.905865522		-2.470047722
F		-2.482040957		0.395441751		-2.343561628
F		-0.350088363		0.31987558		-0.414681188
12
-186.35103317
Al		-1.693793189		2.554219885		-1.224930806
Al		-0.53539837		0.004800804		-2.353743956
Al		-2.208385986		-0.335593712		-0.517960249
F		-0.69979888		3.605908111		-0.124077373
F		-3.00111917		3.227879466		-2.291412519
F		-1.325722888		-1.677801437		-1.674210154
F		-2.58978448		1.45019211		0.018918185
F		-3.23412413		-1.312201746		0.608195364
F		0.63009149		-0.52596886		-3.632042
F		-0.376000493		1.900619722		-2.410286322
F		-2.468466557		0.434906951		-2.323873428
F		-0.326362363		0.23933738		-0.407992788
12
-186.35103317
Al		-1.700640189		2.559361485		-1.230217206
Al		-0.53135937		0.000498204		-2.347429356
Al		-2.200992986		-0.339213912		-0.515325849
F		-0.75743248		3.685722711		-0.161800573
F		-3.01720517		3.176292066		-2.315637519
F		-1.377281488		-1.674999037		-1.720676954
F		-2.52598488		1.44966111		0.053251585
F		-3.24728293		-1.303082546		0.602402164
F		0.62133829		-0.51595326		-3.6426696
F		-0.335373893		1.895373922		-2.350524922
F		-2.454892157		0.474372151		-2.304185228
F		-0.302636363		0.15879918		-0.401304388
12
-186.35103317
Al		-1.707487189		2.564503085		-1.235503606
Al		-0.52732037		-0.003804396		-2.341114756
Al		-2.193599986		-0.342834112		-0.512691449
F		-0.81506608		3.765537311		-0.199523773
F		-3.03329117		3.124704666		-2.339862519
F		-1.428840088		-1.672196637		-1.767143754
F		-2.46218528		1.44913011		0.087584985
F		-3.26044173		-1.293963346		0.596608964
F		0.61258509		-0.50593766		-3.6532972
F		-0.294747293		1.890128122		-2.290763522
F		-2.441317757		0.513837351		-2.284497028
F		-0.278910363		0.07826098		-0.394615988
12
-186.35103317
Al		-1.714334189		2.569644685		-1.240790006
Al		-0.52328137		-0.008106996		-2.334800156
Al		-2.186206986		-0.346454312		-0.510057049
F		-0.87269968		3.845351911		-0.237246973
F		-3.04937717		3.073117266		-2.364087519
F		-1.480398688		-1.669394237		-1.813610554
F		-2.39838568		1.44859911		0.121918385
F		-3.27360053		-1.284844146		0.590815764
F		0.60383189		-0.49592206		-3.6639248
F		-0.254120693		1.884882322		-2.231002122
F		-2.427743357		0.553302551		-2.264808828
F		-0.255184363		-0.00227722		-0.387927588
12
-186.35103317
Al		-1.721181189		2.574786285		-1.246076406
Al		-0.51924237		-0.012409596		-2.328485556
Al		-2.178813986		-0.350074512		-0.507422649
F		-0.93033328		3.925166511		-0.274970173
F		-3.06546317		3.021529866		-2.388312519
F		-1.531957288		-1.666591837		-1.860077354
F		-2.33458608		1.44806811		0.156251785
F		-3.28675933		-1.275724946		0.585022564
F		0.59507869		-0.48590646		-3.6745524
F		-0.213494093		1.879636522		-2.171240722
F		-2.414168957		0.592767751		-2.245120628
F		-0.231458363		-0.08281542		-0.381239188
12
-186.35103317
Al		-1.728028189		2.579927885		-1.251362806
Al		-0.51520337		-0.016712196		-2.322170956
Al		-2.171420986		-0.353694712		-0.504788249
F		-0.98796688		4.004981111		-0.312693373
F		-3.08154917		2.969942466		-2.412537519
F		-1.583515888		-1.663789437		-1.906544154
F		-2.27078648		1.44753711		0.190585185
F		-3.29991813		-1.266605746		0.579229364
F		0.58632549		-0.47589086		-3.68518
F		-0.172867493		1.874390722		-2.111479322
F		-2.400594557		0.632232951		-2.225432428
F		-0.207732363		-0.16335362		-0.374550788
