      12
SCF Done            -185.77640412
Al            0.300287172        -2.321498011        -1.882061261
Al            2.022968930        -0.544481656        -0.781755824
Al           -0.348207406         0.306101703        -1.772818483
F             3.603895088        -0.186415816         0.014883977
F            -0.122047174        -4.020322093        -2.328913036
F             2.119838038        -1.771201476        -2.302476989
F             1.518623495         0.689305339        -2.212905420
F            -1.506799022         1.646859931        -2.122606511
F            -1.141961686        -1.310405452        -1.024337369
F            -0.099059774        -0.975252309        -3.230506181
F             0.475721596         0.354152398        -0.006736602
F             1.076936134        -2.106354410        -0.096308373
