12
-185.77729729
Al		0.276129272		-2.325728111		-1.826594761
Al		2.03254293		-0.541437054		-0.808502424
Al		-0.333623305		0.307287205		-1.801538382
F		3.62261949		-0.180589415		-0.032811522
F		-0.166137274		-4.029480593		-2.228936636
F		2.084778436		-1.782540974		-2.31116989
F		1.527652595		0.623222942		-2.288276018
F		-1.481433423		1.650192032		-2.174887411
F		-1.117310683		-1.269396253		-0.964292567
F		-0.07716777		-1.00706881		-3.21849848
F		0.487509697		0.360895601		-0.034070202
F		1.044635531		-2.044868408		-0.056963974
