12
-185.77729729
Al		0.275595005		-2.327786236		-1.82708079
Al		2.034463728		-0.541001132		-0.807565432
Al		-0.335009836		0.308909408		-1.801989345
F		3.624842532		-0.180084963		-0.031727057
F		-0.166755557		-4.0318625		-2.229499116
F		2.099238444		-1.808575521		-2.290488693
F		1.529283876		0.652585288		-2.267067674
F		-1.483038093		1.652069487		-2.175409396
F		-1.139812375		-1.274340737		-0.992289475
F		-0.112490268		-1.015246753		-3.218710033
F		0.501961784		0.393491317		-0.040647124
F		1.071916345		-2.067669496		-0.064068132
