12
-185.77729729
Al		0.275601008		-2.327763111		-1.827075329
Al		2.034442146		-0.54100603		-0.80757596
Al		-0.334994257		0.308891181		-1.801984278
F		3.624817554		-0.180090631		-0.031739242
F		-0.16674861		-4.031835737		-2.229492796
F		2.099075972		-1.808282998		-2.290721066
F		1.529265547		0.652255374		-2.26730597
F		-1.483020063		1.652048392		-2.175403531
F		-1.139559547		-1.274285181		-0.991974903
F		-0.112093386		-1.015154866		-3.218707656
F		0.501799401		0.393125073		-0.040573226
F		1.071609819		-2.067413304		-0.06398831
