12
-185.77729729
Al		0.275619017		-2.327693736		-1.827058946
Al		2.0343774		-0.541020724		-0.807607544
Al		-0.33494752		0.3088365		-1.801969077
F		3.62474262		-0.180107635		-0.031775797
F		-0.166727769		-4.031755448		-2.229473836
F		2.098588556		-1.807405429		-2.291418185
F		1.52921056		0.651265632		-2.268020858
F		-1.482965973		1.651985107		-2.175385936
F		-1.138801063		-1.274118513		-0.991031187
F		-0.11090274		-1.014879205		-3.218700525
F		0.501312252		0.392026341		-0.040351532
F		1.070690241		-2.066644728		-0.063748844
