12
-185.77729729
Al		0.27562502		-2.327670611		-1.827053485
Al		2.034355818		-0.541025622		-0.807618072
Al		-0.334931941		0.308818273		-1.80196401
F		3.624717642		-0.180113303		-0.031787982
F		-0.166720822		-4.031728685		-2.229467516
F		2.098426084		-1.807112906		-2.291650558
F		1.529192231		0.650935718		-2.268259154
F		-1.482947943		1.651964012		-2.175380071
F		-1.138548235		-1.274062957		-0.990716615
F		-0.110505858		-1.014787318		-3.218698148
F		0.501149869		0.391660097		-0.040277634
F		1.070383715		-2.066388536		-0.063669022
