12
-185.77729729
Al		0.275631023		-2.327647486		-1.827048024
Al		2.034334236		-0.54103052		-0.8076286
Al		-0.334916362		0.308800046		-1.801958943
F		3.624692664		-0.180118971		-0.031800167
F		-0.166713875		-4.031701922		-2.229461196
F		2.098263612		-1.806820383		-2.291882931
F		1.529173902		0.650605804		-2.26849745
F		-1.482929913		1.651942917		-2.175374206
F		-1.138295407		-1.274007401		-0.990402043
F		-0.110108976		-1.014695431		-3.218695771
F		0.500987486		0.391293853		-0.040203736
F		1.070077189		-2.066132344		-0.0635892
