12
-185.77729729
Al		0.275643029		-2.327601236		-1.827037102
Al		2.034291072		-0.541040316		-0.807649656
Al		-0.334885204		0.308763592		-1.801948809
F		3.624642708		-0.180130307		-0.031824537
F		-0.166699981		-4.031648396		-2.229448556
F		2.097938668		-1.806235337		-2.292347677
F		1.529137244		0.649945976		-2.268974042
F		-1.482893853		1.651900727		-2.175362476
F		-1.137789751		-1.273896289		-0.989772899
F		-0.109315212		-1.014511657		-3.218691017
F		0.50066272		0.390561365		-0.04005594
F		1.069464137		-2.06561996		-0.063429556
