12
-185.77729729
Al		0.275679047		-2.327462486		-1.827004336
Al		2.03416158		-0.541069704		-0.807712824
Al		-0.33479173		0.30865423		-1.801918407
F		3.62449284		-0.180164315		-0.031897647
F		-0.166658299		-4.031487818		-2.229410636
F		2.096963836		-1.804480199		-2.293741915
F		1.52902727		0.647966492		-2.270403818
F		-1.482785673		1.651774157		-2.175327286
F		-1.136272783		-1.273562953		-0.987885467
F		-0.10693392		-1.013960335		-3.218676755
F		0.499688422		0.388363901		-0.039612552
F		1.067624981		-2.064082808		-0.062950624
