12
-185.77729729
Al		0.275546981		-2.327971236		-1.827124478
Al		2.034636384		-0.540961948		-0.807481208
Al		-0.335134468		0.309055224		-1.802029881
F		3.625042356		-0.180039619		-0.031629577
F		-0.166811133		-4.032076604		-2.229549676
F		2.10053822		-1.810915705		-2.288629709
F		1.529430508		0.6552246		-2.265161306
F		-1.483182333		1.652238247		-2.175456316
F		-1.141834999		-1.274785185		-0.994806051
F		-0.115665324		-1.015981849		-3.218729049
F		0.503260848		0.396421269		-0.041238308
F		1.074368553		-2.069719032		-0.064706708
