12
-185.77729729
Al		0.275709062		-2.327346861		-1.826977031
Al		2.03405367		-0.541094194		-0.807765464
Al		-0.334713835		0.308563095		-1.801893072
F		3.62436795		-0.180192655		-0.031958572
F		-0.166623564		-4.031354003		-2.229379036
F		2.096151476		-1.803017584		-2.29490378
F		1.528935625		0.646316922		-2.271595298
F		-1.482695523		1.651668682		-2.175297961
F		-1.135008643		-1.273285173		-0.986312607
F		-0.10494951		-1.0135009		-3.21866487
F		0.498876507		0.386532681		-0.039243062
F		1.066092351		-2.062801848		-0.062551514
