12
-185.77729729
Al		0.275721068		-2.327300611		-1.826966109
Al		2.034010506		-0.54110399		-0.80778652
Al		-0.334682677		0.308526641		-1.801882938
F		3.624317994		-0.180203991		-0.031982942
F		-0.16660967		-4.031300477		-2.229366396
F		2.095826532		-1.802432538		-2.295368526
F		1.528898967		0.645657094		-2.27207189
F		-1.482659463		1.651626492		-2.175286231
F		-1.134502987		-1.273174061		-0.985683463
F		-0.104155746		-1.013317126		-3.218660116
F		0.498551741		0.385800193		-0.039095266
F		1.065479299		-2.062289464		-0.06239187
