12
-185.77729729
Al		0.275727071		-2.327277486		-1.826960648
Al		2.033988924		-0.541108888		-0.807797048
Al		-0.334667098		0.308508414		-1.801877871
F		3.624293016		-0.180209659		-0.031995127
F		-0.166602723		-4.031273714		-2.229360076
F		2.09566406		-1.802140015		-2.295600899
F		1.528880638		0.64532718		-2.272310186
F		-1.482641433		1.651605397		-2.175280366
F		-1.134250159		-1.273118505		-0.985368891
F		-0.103758864		-1.013225239		-3.218657739
F		0.498389358		0.385433949		-0.039021368
F		1.065172773		-2.062033272		-0.062312048
