12
-185.77729729
Al		0.275769092		-2.327115611		-1.826922421
Al		2.03383785		-0.541143174		-0.807870744
Al		-0.334558045		0.308380825		-1.801842402
F		3.62411817		-0.180249335		-0.032080422
F		-0.166554094		-4.031086373		-2.229315836
F		2.094526756		-1.800092354		-2.29722751
F		1.528752335		0.643017782		-2.273978258
F		-1.482515223		1.651457732		-2.175239311
F		-1.132480363		-1.272729613		-0.983166887
F		-0.10098069		-1.01258203		-3.2186411
F		0.497252677		0.382870241		-0.038504082
F		1.063027091		-2.060239928		-0.061753294
