12
-185.77729729
Al		0.275775095		-2.327092486		-1.82691696
Al		2.033816268		-0.541148072		-0.807881272
Al		-0.334542466		0.308362598		-1.801837335
F		3.624093192		-0.180255003		-0.032092607
F		-0.166547147		-4.03105961		-2.229309516
F		2.094364284		-1.799799831		-2.297459883
F		1.528734006		0.642687868		-2.274216554
F		-1.482497193		1.651436637		-2.175233446
F		-1.132227535		-1.272674057		-0.982852315
F		-0.100583808		-1.012490143		-3.218638723
F		0.497090294		0.382503997		-0.038430184
F		1.062720565		-2.059983736		-0.061673472
