12
-185.77729729
Al		0.275811113		-2.326953736		-1.826884194
Al		2.033686776		-0.54117746		-0.80794444
Al		-0.334448992		0.308253236		-1.801806933
F		3.623943324		-0.180289011		-0.032165717
F		-0.166505465		-4.030899032		-2.229271596
F		2.093389452		-1.798044693		-2.298854121
F		1.528624032		0.640708384		-2.27564633
F		-1.482389013		1.651310067		-2.175198256
F		-1.130710567		-1.272340721		-0.980964883
F		-0.098202516		-1.011938821		-3.218624461
F		0.496115996		0.380306533		-0.037986796
F		1.060881409		-2.058446584		-0.06119454
