12
-185.77729729
Al		0.275841128		-2.326838111		-1.826856889
Al		2.033578866		-0.54120195		-0.80799708
Al		-0.334371097		0.308162101		-1.801781598
F		3.623818434		-0.180317351		-0.032226642
F		-0.16647073		-4.030765217		-2.229239996
F		2.092577092		-1.796582078		-2.300015986
F		1.528532387		0.639058814		-2.27683781
F		-1.482298863		1.651204592		-2.175168931
F		-1.129446427		-1.272062941		-0.979392023
F		-0.096218106		-1.011479386		-3.218612576
F		0.495304081		0.378475313		-0.037617306
F		1.059348779		-2.057165624		-0.06079543
