12
-185.77729729
Al		0.275853134		-2.326791861		-1.826845967
Al		2.033535702		-0.541211746		-0.808018136
Al		-0.334339939		0.308125647		-1.801771464
F		3.623768478		-0.180328687		-0.032251012
F		-0.166456836		-4.030711691		-2.229227356
F		2.092252148		-1.795997032		-2.300480732
F		1.528495729		0.638398986		-2.277314402
F		-1.482262803		1.651162402		-2.175157201
F		-1.128940771		-1.271951829		-0.978762879
F		-0.095424342		-1.011295612		-3.218607822
F		0.494979315		0.377742825		-0.03746951
F		1.058735727		-2.05665324		-0.060635786
