12
-185.77729729
Al		0.275871143		-2.326722486		-1.826829584
Al		2.033470956		-0.54122644		-0.80804972
Al		-0.334293202		0.308070966		-1.801756263
F		3.623693544		-0.180345691		-0.032287567
F		-0.166435995		-4.030631402		-2.229208396
F		2.091764732		-1.795119463		-2.301177851
F		1.528440742		0.637409244		-2.27802929
F		-1.482208713		1.651099117		-2.175139606
F		-1.128182287		-1.271785161		-0.977819163
F		-0.094233696		-1.011019951		-3.218600691
F		0.494492166		0.376644093		-0.037247816
F		1.057816149		-2.055884664		-0.06039632
