12
-185.77729729
Al		0.275883149		-2.326676236		-1.826818662
Al		2.033427792		-0.541236236		-0.808070776
Al		-0.334262044		0.308034512		-1.801746129
F		3.623643588		-0.180357027		-0.032311937
F		-0.166422101		-4.030577876		-2.229195756
F		2.091439788		-1.794534417		-2.301642597
F		1.528404084		0.636749416		-2.278505882
F		-1.482172653		1.651056927		-2.175127876
F		-1.127676631		-1.271674049		-0.977190019
F		-0.093439932		-1.010836177		-3.218595937
F		0.4941674		0.375911605		-0.03710002
F		1.057203097		-2.05537228		-0.060236676
