12
-185.77729729
Al		0.27556499		-2.327901861		-1.827108095
Al		2.034571638		-0.540976642		-0.807512792
Al		-0.335087731		0.309000543		-1.80201468
F		3.624967422		-0.180056623		-0.031666132
F		-0.166790292		-4.031996315		-2.229530716
F		2.100050804		-1.810038136		-2.289326828
F		1.529375521		0.654234858		-2.265876194
F		-1.483128243		1.652174962		-2.175438721
F		-1.141076515		-1.274618517		-0.993862335
F		-0.114474678		-1.015706188		-3.218721918
F		0.502773699		0.395322537		-0.041016614
F		1.073448975		-2.068950456		-0.064467242
