12
-185.77729729
Al		0.275895155		-2.326629986		-1.82680774
Al		2.033384628		-0.541246032		-0.808091832
Al		-0.334230886		0.307998058		-1.801735995
F		3.623593632		-0.180368363		-0.032336307
F		-0.166408207		-4.03052435		-2.229183116
F		2.091114844		-1.793949371		-2.302107343
F		1.528367426		0.636089588		-2.278982474
F		-1.482136593		1.651014737		-2.175116146
F		-1.127170975		-1.271562937		-0.976560875
F		-0.092646168		-1.010652403		-3.218591183
F		0.493842634		0.375179117		-0.036952224
F		1.056590045		-2.054859896		-0.060077032
