12
-185.77729729
Al		0.275913164		-2.326560611		-1.826791357
Al		2.033319882		-0.541260726		-0.808123416
Al		-0.334184149		0.307943377		-1.801720794
F		3.623518698		-0.180385367		-0.032372862
F		-0.166387366		-4.030444061		-2.229164156
F		2.090627428		-1.793071802		-2.302804462
F		1.528312439		0.635099846		-2.279697362
F		-1.482082503		1.650951452		-2.175098551
F		-1.126412491		-1.271396269		-0.975617159
F		-0.091455522		-1.010376742		-3.218584052
F		0.493355485		0.374080385		-0.03673053
F		1.055670467		-2.05409132		-0.059837566
