12
-185.77729729
Al		0.275931173		-2.326491236		-1.826774974
Al		2.033255136		-0.54127542		-0.808155
Al		-0.334137412		0.307888696		-1.801705593
F		3.623443764		-0.180402371		-0.032409417
F		-0.166366525		-4.030363772		-2.229145196
F		2.090140012		-1.792194233		-2.303501581
F		1.528257452		0.634110104		-2.28041225
F		-1.482028413		1.650888167		-2.175080956
F		-1.125654007		-1.271229601		-0.974673443
F		-0.090264876		-1.010101081		-3.218576921
F		0.492868336		0.372981653		-0.036508836
F		1.054750889		-2.053322744		-0.0595981
