12
-185.77729729
Al		0.275961188		-2.326375611		-1.826747669
Al		2.033147226		-0.54129991		-0.80820764
Al		-0.334059517		0.307797561		-1.801680258
F		3.623318874		-0.180430711		-0.032470342
F		-0.16633179		-4.030229957		-2.229113596
F		2.089327652		-1.790731618		-2.304663446
F		1.528165807		0.632460534		-2.28160373
F		-1.481938263		1.650782692		-2.175051631
F		-1.124389867		-1.270951821		-0.973100583
F		-0.088280466		-1.009641646		-3.218565036
F		0.492056421		0.371150433		-0.036139346
F		1.053218259		-2.052041784		-0.05919899
