12
-185.77729729
Al		0.275973194		-2.326329361		-1.826736747
Al		2.033104062		-0.541309706		-0.808228696
Al		-0.334028359		0.307761107		-1.801670124
F		3.623268918		-0.180442047		-0.032494712
F		-0.166317896		-4.030176431		-2.229100956
F		2.089002708		-1.790146572		-2.305128192
F		1.528129149		0.631800706		-2.282080322
F		-1.481902203		1.650740502		-2.175039901
F		-1.123884211		-1.270840709		-0.972471439
F		-0.087486702		-1.009457872		-3.218560282
F		0.491731655		0.370417945		-0.03599155
F		1.052605207		-2.0515294		-0.059039346
