12
-185.77729729
Al		0.275979197		-2.326306236		-1.826731286
Al		2.03308248		-0.541314604		-0.808239224
Al		-0.33401278		0.30774288		-1.801665057
F		3.62324394		-0.180447715		-0.032506897
F		-0.166310949		-4.030149668		-2.229094636
F		2.088840236		-1.789854049		-2.305360565
F		1.52811082		0.631470792		-2.282318618
F		-1.481884173		1.650719407		-2.175034036
F		-1.123631383		-1.270785153		-0.972156867
F		-0.08708982		-1.009365985		-3.218557905
F		0.491569272		0.370051701		-0.035917652
F		1.052298681		-2.051273208		-0.058959524
