12
-185.77729729
Al		0.2759852		-2.326283111		-1.826725825
Al		2.033060898		-0.541319502		-0.808249752
Al		-0.333997201		0.307724653		-1.80165999
F		3.623218962		-0.180453383		-0.032519082
F		-0.166304002		-4.030122905		-2.229088316
F		2.088677764		-1.789561526		-2.305592938
F		1.528092491		0.631140878		-2.282556914
F		-1.481866143		1.650698312		-2.175028171
F		-1.123378555		-1.270729597		-0.971842295
F		-0.086692938		-1.009274098		-3.218555528
F		0.491406889		0.369685457		-0.035843754
F		1.051992155		-2.051017016		-0.058879702
