12
-185.77729729
Al		0.276021218		-2.326144361		-1.826693059
Al		2.032931406		-0.54134889		-0.80831292
Al		-0.333903727		0.307615291		-1.801629588
F		3.623069094		-0.180487391		-0.032592192
F		-0.16626232		-4.029962327		-2.229050396
F		2.087702932		-1.787806388		-2.306987176
F		1.527982517		0.629161394		-2.28398669
F		-1.481757963		1.650571742		-2.174992981
F		-1.121861587		-1.270396261		-0.969954863
F		-0.084311646		-1.008722776		-3.218541266
F		0.490432591		0.367487993		-0.035400366
F		1.050152999		-2.049479864		-0.05840077
