12
-185.77729729
Al		0.276027221		-2.326121236		-1.826687598
Al		2.032909824		-0.541353788		-0.808323448
Al		-0.333888148		0.307597064		-1.801624521
F		3.623044116		-0.180493059		-0.032604377
F		-0.166255373		-4.029935564		-2.229044076
F		2.08754046		-1.787513865		-2.307219549
F		1.527964188		0.62883148		-2.284224986
F		-1.481739933		1.650550647		-2.174987116
F		-1.121608759		-1.270340705		-0.969640291
F		-0.083914764		-1.008630889		-3.218538889
F		0.490270208		0.367121749		-0.035326468
F		1.049846473		-2.049223672		-0.058320948
