12
-185.77729729
Al		0.276033224		-2.326098111		-1.826682137
Al		2.032888242		-0.541358686		-0.808333976
Al		-0.333872569		0.307578837		-1.801619454
F		3.623019138		-0.180498727		-0.032616562
F		-0.166248426		-4.029908801		-2.229037756
F		2.087377988		-1.787221342		-2.307451922
F		1.527945859		0.628501566		-2.284463282
F		-1.481721903		1.650529552		-2.174981251
F		-1.121355931		-1.270285149		-0.969325719
F		-0.083517882		-1.008539002		-3.218536512
F		0.490107825		0.366755505		-0.03525257
F		1.049539947		-2.04896748		-0.058241126
