12
-185.77729729
Al		0.276039227		-2.326074986		-1.826676676
Al		2.03286666		-0.541363584		-0.808344504
Al		-0.33385699		0.30756061		-1.801614387
F		3.62299416		-0.180504395		-0.032628747
F		-0.166241479		-4.029882038		-2.229031436
F		2.087215516		-1.786928819		-2.307684295
F		1.52792753		0.628171652		-2.284701578
F		-1.481703873		1.650508457		-2.174975386
F		-1.121103103		-1.270229593		-0.969011147
F		-0.083121		-1.008447115		-3.218534135
F		0.489945442		0.366389261		-0.035178672
F		1.049233421		-2.048711288		-0.058161304
