12
-185.77729729
Al		0.27604523		-2.326051861		-1.826671215
Al		2.032845078		-0.541368482		-0.808355032
Al		-0.333841411		0.307542383		-1.80160932
F		3.622969182		-0.180510063		-0.032640932
F		-0.166234532		-4.029855275		-2.229025116
F		2.087053044		-1.786636296		-2.307916668
F		1.527909201		0.627841738		-2.284939874
F		-1.481685843		1.650487362		-2.174969521
F		-1.120850275		-1.270174037		-0.968696575
F		-0.082724118		-1.008355228		-3.218531758
F		0.489783059		0.366023017		-0.035104774
F		1.048926895		-2.048455096		-0.058081482
