12
-185.77729729
Al		0.276063239		-2.325982486		-1.826654832
Al		2.032780332		-0.541383176		-0.808386616
Al		-0.333794674		0.307487702		-1.801594119
F		3.622894248		-0.180527067		-0.032677487
F		-0.166213691		-4.029774986		-2.229006156
F		2.086565628		-1.785758727		-2.308613787
F		1.527854214		0.626851996		-2.285654762
F		-1.481631753		1.650424077		-2.174951926
F		-1.120091791		-1.270007369		-0.967752859
F		-0.081533472		-1.008079567		-3.218524627
F		0.48929591		0.364924285		-0.03488308
F		1.048007317		-2.04768652		-0.057842016
