12
-185.77729729
Al		0.275582999		-2.327832486		-1.827091712
Al		2.034506892		-0.540991336		-0.807544376
Al		-0.335040994		0.308945862		-1.801999479
F		3.624892488		-0.180073627		-0.031702687
F		-0.166769451		-4.031916026		-2.229511756
F		2.099563388		-1.809160567		-2.290023947
F		1.529320534		0.653245116		-2.266591082
F		-1.483074153		1.652111677		-2.175421126
F		-1.140318031		-1.274451849		-0.992918619
F		-0.113284032		-1.015430527		-3.218714787
F		0.50228655		0.394223805		-0.04079492
F		1.072529397		-2.06818188		-0.064227776
