12
-185.77729729
Al		0.276111263		-2.325797486		-1.826611144
Al		2.032607676		-0.54142236		-0.80847084
Al		-0.333670042		0.307341886		-1.801553583
F		3.622694424		-0.180572411		-0.032774967
F		-0.166158115		-4.029560882		-2.228955596
F		2.085265852		-1.783418543		-2.310472771
F		1.527707582		0.624212684		-2.28756113
F		-1.481487513		1.650255317		-2.174905006
F		-1.118069167		-1.269562921		-0.965236283
F		-0.078358416		-1.007344471		-3.218505611
F		0.487996846		0.361994333		-0.034291896
F		1.045555109		-2.045636984		-0.05720344
