12
-185.77729729
Al		0.275468942		-2.328271861		-1.827195471
Al		2.03491695		-0.540898274		-0.807344344
Al		-0.335336995		0.309292175		-1.802095752
F		3.62536707		-0.179965935		-0.031471172
F		-0.166901444		-4.032424523		-2.229631836
F		2.102650356		-1.814718504		-2.28560886
F		1.529668785		0.659513482		-2.262063458
F		-1.483416723		1.652512482		-2.175532561
F		-1.145121763		-1.275507413		-0.998895487
F		-0.12082479		-1.01717638		-3.21875995
F		0.505371827		0.401182441		-0.042198982
F		1.078353391		-2.073049528		-0.065744394
