12
-185.77729729
Al		0.275396906		-2.328549361		-1.827261003
Al		2.035175934		-0.540839498		-0.807218008
Al		-0.335523943		0.309510899		-1.802156556
F		3.625666806		-0.179897919		-0.031324952
F		-0.166984808		-4.032745679		-2.229707676
F		2.10460002		-1.81822878		-2.282820384
F		1.529888733		0.66347245		-2.259203906
F		-1.483633083		1.652765622		-2.175602941
F		-1.148155699		-1.276174085		-1.002670351
F		-0.125587374		-1.018279024		-3.218788474
F		0.507320423		0.405577369		-0.043085758
F		1.082031703		-2.076123832		-0.066702258
