12
-185.77729729
Al		0.2753849		-2.328595611		-1.827271925
Al		2.035219098		-0.540829702		-0.807196952
Al		-0.335555101		0.309547353		-1.80216669
F		3.625716762		-0.179886583		-0.031300582
F		-0.166998702		-4.032799205		-2.229720316
F		2.104924964		-1.818813826		-2.282355638
F		1.529925391		0.664132278		-2.258727314
F		-1.483669143		1.652807812		-2.175614671
F		-1.148661355		-1.276285197		-1.003299495
F		-0.126381138		-1.018462798		-3.218793228
F		0.507645189		0.406309857		-0.043233554
F		1.082644755		-2.076636216		-0.066861902
