12
-185.77729729
Al		0.275378897		-2.328618736		-1.827277386
Al		2.03524068		-0.540824804		-0.807186424
Al		-0.33557068		0.30956558		-1.802171757
F		3.62574174		-0.179880915		-0.031288397
F		-0.167005649		-4.032825968		-2.229726636
F		2.105087436		-1.819106349		-2.282123265
F		1.52994372		0.664462192		-2.258489018
F		-1.483687173		1.652828907		-2.175620536
F		-1.148914183		-1.276340753		-1.003614067
F		-0.12677802		-1.018554685		-3.218795605
F		0.507807572		0.406676101		-0.043307452
F		1.082951281		-2.076892408		-0.066941724
