12
-185.77729729
Al		0.275372894		-2.328641861		-1.827282847
Al		2.035262262		-0.540819906		-0.807175896
Al		-0.335586259		0.309583807		-1.802176824
F		3.625766718		-0.179875247		-0.031276212
F		-0.167012596		-4.032852731		-2.229732956
F		2.105249908		-1.819398872		-2.281890892
F		1.529962049		0.664792106		-2.258250722
F		-1.483705203		1.652850002		-2.175626401
F		-1.149167011		-1.276396309		-1.003928639
F		-0.127174902		-1.018646572		-3.218797982
F		0.507969955		0.407042345		-0.04338135
F		1.083257807		-2.0771486		-0.067021546
