12
-185.77729729
Al		0.275366891		-2.328664986		-1.827288308
Al		2.035283844		-0.540815008		-0.807165368
Al		-0.335601838		0.309602034		-1.802181891
F		3.625791696		-0.179869579		-0.031264027
F		-0.167019543		-4.032879494		-2.229739276
F		2.10541238		-1.819691395		-2.281658519
F		1.529980378		0.66512202		-2.258012426
F		-1.483723233		1.652871097		-2.175632266
F		-1.149419839		-1.276451865		-1.004243211
F		-0.127571784		-1.018738459		-3.218800359
F		0.508132338		0.407408589		-0.043455248
F		1.083564333		-2.077404792		-0.067101368
