12
-185.77729729
Al		0.275354885		-2.328711236		-1.82729923
Al		2.035327008		-0.540805212		-0.807144312
Al		-0.335632996		0.309638488		-1.802192025
F		3.625841652		-0.179858243		-0.031239657
F		-0.167033437		-4.03293302		-2.229751916
F		2.105737324		-1.820276441		-2.281193773
F		1.530017036		0.665781848		-2.257535834
F		-1.483759293		1.652913287		-2.175643996
F		-1.149925495		-1.276562977		-1.004872355
F		-0.128365548		-1.018922233		-3.218805113
F		0.508457104		0.408141077		-0.043603044
F		1.084177385		-2.077917176		-0.067261012
