12
-185.77729729
Al		0.275348882		-2.328734361		-1.827304691
Al		2.03534859		-0.540800314		-0.807133784
Al		-0.335648575		0.309656715		-1.802197092
F		3.62586663		-0.179852575		-0.031227472
F		-0.167040384		-4.032959783		-2.229758236
F		2.105899796		-1.820568964		-2.2809614
F		1.530035365		0.666111762		-2.257297538
F		-1.483777323		1.652934382		-2.175649861
F		-1.150178323		-1.276618533		-1.005186927
F		-0.12876243		-1.01901412		-3.21880749
F		0.508619487		0.408507321		-0.043676942
F		1.084483911		-2.078173368		-0.067340834
