12
-185.77729729
Al		0.275330873		-2.328803736		-1.827321074
Al		2.035413336		-0.54078562		-0.8071022
Al		-0.335695312		0.309711396		-1.802212293
F		3.625941564		-0.179835571		-0.031190917
F		-0.167061225		-4.033040072		-2.229777196
F		2.106387212		-1.821446533		-2.280264281
F		1.530090352		0.667101504		-2.25658265
F		-1.483831413		1.652997667		-2.175667456
F		-1.150936807		-1.276785201		-1.006130643
F		-0.129953076		-1.019289781		-3.218814621
F		0.509106636		0.409606053		-0.043898636
F		1.085403489		-2.078941944		-0.0675803
