12
-185.77729729
Al		0.27532487		-2.328826861		-1.827326535
Al		2.035434918		-0.540780722		-0.807091672
Al		-0.335710891		0.309729623		-1.80221736
F		3.625966542		-0.179829903		-0.031178732
F		-0.167068172		-4.033066835		-2.229783516
F		2.106549684		-1.821739056		-2.280031908
F		1.530108681		0.667431418		-2.256344354
F		-1.483849443		1.653018762		-2.175673321
F		-1.151189635		-1.276840757		-1.006445215
F		-0.130349958		-1.019381668		-3.218816998
F		0.509269019		0.409972297		-0.043972534
F		1.085710015		-2.079198136		-0.067660122
