12
-185.77729729
Al		0.275300858		-2.328919361		-1.827348379
Al		2.035521246		-0.54076113		-0.80704956
Al		-0.335773207		0.309802531		-1.802237628
F		3.626066454		-0.179807231		-0.031129992
F		-0.16709596		-4.033173887		-2.229808796
F		2.107199572		-1.822909148		-2.279102416
F		1.530181997		0.668751074		-2.25539117
F		-1.483921563		1.653103142		-2.175696781
F		-1.152200947		-1.277062981		-1.007703503
F		-0.131937486		-1.019749216		-3.218826506
F		0.509918551		0.411437273		-0.044268126
F		1.086936119		-2.080222904		-0.06797941
