12
-185.77729729
Al		0.275282849		-2.328988736		-1.827364762
Al		2.035585992		-0.540746436		-0.807017976
Al		-0.335819944		0.309857212		-1.802252829
F		3.626141388		-0.179790227		-0.031093437
F		-0.167116801		-4.033254176		-2.229827756
F		2.107686988		-1.823786717		-2.278405297
F		1.530236984		0.669740816		-2.254676282
F		-1.483975653		1.653166427		-2.175714376
F		-1.152959431		-1.277229649		-1.008647219
F		-0.133128132		-1.020024877		-3.218833637
F		0.5104057		0.412536005		-0.04448982
F		1.087855697		-2.08099148		-0.068218876
