12
-185.77729729
Al		0.275270843		-2.329034986		-1.827375684
Al		2.035629156		-0.54073664		-0.80699692
Al		-0.335851102		0.309893666		-1.802262963
F		3.626191344		-0.179778891		-0.031069067
F		-0.167130695		-4.033307702		-2.229840396
F		2.108011932		-1.824371763		-2.277940551
F		1.530273642		0.670400644		-2.25419969
F		-1.484011713		1.653208617		-2.175726106
F		-1.153465087		-1.277340761		-1.009276363
F		-0.133921896		-1.020208651		-3.218838391
F		0.510730466		0.413268493		-0.044637616
F		1.088468749		-2.081503864		-0.06837852
