12
-185.77729729
Al		0.275168792		-2.329428111		-1.827468521
Al		2.03599605		-0.540653374		-0.806817944
Al		-0.336115945		0.310203525		-1.802349102
F		3.62661597		-0.179682535		-0.030861922
F		-0.167248794		-4.033762673		-2.229947836
F		2.110773956		-1.829344654		-2.27399021
F		1.530585235		0.676009182		-2.250148658
F		-1.484318223		1.653567232		-2.175825811
F		-1.157763163		-1.278285213		-1.014624087
F		-0.14066889		-1.02177073		-3.2188788
F		0.513490977		0.419494641		-0.045893882
F		1.093679691		-2.085859128		-0.069735494
