12
-185.77729729
Al		0.275162789		-2.329451236		-1.827473982
Al		2.036017632		-0.540648476		-0.806807416
Al		-0.336131524		0.310221752		-1.802354169
F		3.626640948		-0.179676867		-0.030849737
F		-0.167255741		-4.033789436		-2.229954156
F		2.110936428		-1.829637177		-2.273757837
F		1.530603564		0.676339096		-2.249910362
F		-1.484336253		1.653588327		-2.175831676
F		-1.158015991		-1.278340769		-1.014938659
F		-0.141065772		-1.021862617		-3.218881177
F		0.51365336		0.419860885		-0.04596778
F		1.093986217		-2.08611532		-0.069815316
