12
-185.77729729
Al		0.275156786		-2.329474361		-1.827479443
Al		2.036039214		-0.540643578		-0.806796888
Al		-0.336147103		0.310239979		-1.802359236
F		3.626665926		-0.179671199		-0.030837552
F		-0.167262688		-4.033816199		-2.229960476
F		2.1110989		-1.8299297		-2.273525464
F		1.530621893		0.67666901		-2.249672066
F		-1.484354283		1.653609422		-2.175837541
F		-1.158268819		-1.278396325		-1.015253231
F		-0.141462654		-1.021954504		-3.218883554
F		0.513815743		0.420227129		-0.046041678
F		1.094292743		-2.086371512		-0.069895138
