12
-185.77729729
Al		0.275132774		-2.329566861		-1.827501287
Al		2.036125542		-0.540623986		-0.806754776
Al		-0.336209419		0.310312887		-1.802379504
F		3.626765838		-0.179648527		-0.030788812
F		-0.167290476		-4.033923251		-2.229985756
F		2.111748788		-1.831099792		-2.272595972
F		1.530695209		0.677988666		-2.248718882
F		-1.484426403		1.653693802		-2.175861001
F		-1.159280131		-1.278618549		-1.016511519
F		-0.143050182		-1.022322052		-3.218893062
F		0.514465275		0.421692105		-0.04633727
F		1.095518847		-2.08739628		-0.070214426
