12
-185.77729729
Al		0.275096756		-2.329705611		-1.827534053
Al		2.036255034		-0.540594598		-0.806691608
Al		-0.336302893		0.310422249		-1.802409906
F		3.626915706		-0.179614519		-0.030715702
F		-0.167332158		-4.034083829		-2.230023676
F		2.11272362		-1.83285493		-2.271201734
F		1.530805183		0.67996815		-2.247289106
F		-1.484534583		1.653820372		-2.175896191
F		-1.160797099		-1.278951885		-1.018398951
F		-0.145431474		-1.022873374		-3.218907324
F		0.515439573		0.423889569		-0.046780658
F		1.097358003		-2.088933432		-0.070693358
