12
-185.77729729
Al		0.27508475		-2.329751861		-1.827544975
Al		2.036298198		-0.540584802		-0.806670552
Al		-0.336334051		0.310458703		-1.80242004
F		3.626965662		-0.179603183		-0.030691332
F		-0.167346052		-4.034137355		-2.230036316
F		2.113048564		-1.833439976		-2.270736988
F		1.530841841		0.680627978		-2.246812514
F		-1.484570643		1.653862562		-2.175907921
F		-1.161302755		-1.279062997		-1.019028095
F		-0.146225238		-1.023057148		-3.218912078
F		0.515764339		0.424622057		-0.046928454
F		1.097971055		-2.089445816		-0.070853002
