12
-185.77729729
Al		0.275066741		-2.329821236		-1.827561358
Al		2.036362944		-0.540570108		-0.806638968
Al		-0.336380788		0.310513384		-1.802435241
F		3.627040596		-0.179586179		-0.030654777
F		-0.167366893		-4.034217644		-2.230055276
F		2.11353598		-1.834317545		-2.270039869
F		1.530896828		0.68161772		-2.246097626
F		-1.484624733		1.653925847		-2.175925516
F		-1.162061239		-1.279229665		-1.019971811
F		-0.147415884		-1.023332809		-3.218919209
F		0.516251488		0.425720789		-0.047150148
F		1.098890633		-2.090214392		-0.071092468
