12
-185.77729729
Al		0.275054735		-2.329867486		-1.82757228
Al		2.036406108		-0.540560312		-0.806617912
Al		-0.336411946		0.310549838		-1.802445375
F		3.627090552		-0.179574843		-0.030630407
F		-0.167380787		-4.03427117		-2.230067916
F		2.113860924		-1.834902591		-2.269575123
F		1.530933486		0.682277548		-2.245621034
F		-1.484660793		1.653968037		-2.175937246
F		-1.162566895		-1.279340777		-1.020600955
F		-0.148209648		-1.023516583		-3.218923963
F		0.516576254		0.426453277		-0.047297944
F		1.099503685		-2.090726776		-0.071252112
