12
-185.77729729
Al		0.275480948		-2.328225611		-1.827184549
Al		2.034873786		-0.54090807		-0.8073654
Al		-0.335305837		0.309255721		-1.802085618
F		3.625317114		-0.179977271		-0.031495542
F		-0.16688755		-4.032370997		-2.229619196
F		2.102325412		-1.814133458		-2.286073606
F		1.529632127		0.658853654		-2.26254005
F		-1.483380663		1.652470292		-2.175520831
F		-1.144616107		-1.275396301		-0.998266343
F		-0.120031026		-1.016992606		-3.218755196
F		0.505047061		0.400449953		-0.042051186
F		1.077740339		-2.072537144		-0.06558475
