12
-185.77729729
Al		0.275042729		-2.329913736		-1.827583202
Al		2.036449272		-0.540550516		-0.806596856
Al		-0.336443104		0.310586292		-1.802455509
F		3.627140508		-0.179563507		-0.030606037
F		-0.167394681		-4.034324696		-2.230080556
F		2.114185868		-1.835487637		-2.269110377
F		1.530970144		0.682937376		-2.245144442
F		-1.484696853		1.654010227		-2.175948976
F		-1.163072551		-1.279451889		-1.021230099
F		-0.149003412		-1.023700357		-3.218928717
F		0.51690102		0.427185765		-0.04744574
F		1.100116737		-2.09123916		-0.071411756
