12
-185.77729729
Al		0.275036726		-2.329936861		-1.827588663
Al		2.036470854		-0.540545618		-0.806586328
Al		-0.336458683		0.310604519		-1.802460576
F		3.627165486		-0.179557839		-0.030593852
F		-0.167401628		-4.034351459		-2.230086876
F		2.11434834		-1.83578016		-2.268878004
F		1.530988473		0.68326729		-2.244906146
F		-1.484714883		1.654031322		-2.175954841
F		-1.163325379		-1.279507445		-1.021544671
F		-0.149400294		-1.023792244		-3.218931094
F		0.517063403		0.427552009		-0.047519638
F		1.100423263		-2.091495352		-0.071491578
