12
-185.77729729
Al		0.275030723		-2.329959986		-1.827594124
Al		2.036492436		-0.54054072		-0.8065758
Al		-0.336474262		0.310622746		-1.802465643
F		3.627190464		-0.179552171		-0.030581667
F		-0.167408575		-4.034378222		-2.230093196
F		2.114510812		-1.836072683		-2.268645631
F		1.531006802		0.683597204		-2.24466785
F		-1.484732913		1.654052417		-2.175960706
F		-1.163578207		-1.279563001		-1.021859243
F		-0.149797176		-1.023884131		-3.218933471
F		0.517225786		0.427918253		-0.047593536
F		1.100729789		-2.091751544		-0.0715714
