12
-185.77729729
Al		0.275018717		-2.330006236		-1.827605046
Al		2.0365356		-0.540530924		-0.806554744
Al		-0.33650542		0.3106592		-1.802475777
F		3.62724042		-0.179540835		-0.030557297
F		-0.167422469		-4.034431748		-2.230105836
F		2.114835756		-1.836657729		-2.268180885
F		1.53104346		0.684257032		-2.244191258
F		-1.484768973		1.654094607		-2.175972436
F		-1.164083863		-1.279674113		-1.022488387
F		-0.15059094		-1.024067905		-3.218938225
F		0.517550552		0.428650741		-0.047741332
F		1.101342841		-2.092263928		-0.071731044
