12
-185.77729729
Al		0.275000708		-2.330075611		-1.827621429
Al		2.036600346		-0.54051623		-0.80652316
Al		-0.336552157		0.310713881		-1.802490978
F		3.627315354		-0.179523831		-0.030520742
F		-0.16744331		-4.034512037		-2.230124796
F		2.115323172		-1.837535298		-2.267483766
F		1.531098447		0.685246774		-2.24347637
F		-1.484823063		1.654157892		-2.175990031
F		-1.164842347		-1.279840781		-1.023432103
F		-0.151781586		-1.024343566		-3.218945356
F		0.518037701		0.429749473		-0.047963026
F		1.102262419		-2.093032504		-0.07197051
