12
-185.77729729
Al		0.274988702		-2.330121861		-1.827632351
Al		2.03664351		-0.540506434		-0.806502104
Al		-0.336583315		0.310750335		-1.802501112
F		3.62736531		-0.179512495		-0.030496372
F		-0.167457204		-4.034565563		-2.230137436
F		2.115648116		-1.838120344		-2.26701902
F		1.531135105		0.685906602		-2.242999778
F		-1.484859123		1.654200082		-2.176001761
F		-1.165348003		-1.279951893		-1.024061247
F		-0.15257535		-1.02452734		-3.21895011
F		0.518362467		0.430481961		-0.048110822
F		1.102875471		-2.093544888		-0.072130154
