12
-185.77729729
Al		0.274970693		-2.330191236		-1.827648734
Al		2.036708256		-0.54049174		-0.80647052
Al		-0.336630052		0.310805016		-1.802516313
F		3.627440244		-0.179495491		-0.030459817
F		-0.167478045		-4.034645852		-2.230156396
F		2.116135532		-1.838997913		-2.266321901
F		1.531190092		0.686896344		-2.24228489
F		-1.484913213		1.654263367		-2.176019356
F		-1.166106487		-1.280118561		-1.025004963
F		-0.153765996		-1.024803001		-3.218957241
F		0.518849616		0.431580693		-0.048332516
F		1.103795049		-2.094313464		-0.07236962
