12
-185.77729729
Al		0.27496469		-2.330214361		-1.827654195
Al		2.036729838		-0.540486842		-0.806459992
Al		-0.336645631		0.310823243		-1.80252138
F		3.627465222		-0.179489823		-0.030447632
F		-0.167484992		-4.034672615		-2.230162716
F		2.116298004		-1.839290436		-2.266089528
F		1.531208421		0.687226258		-2.242046594
F		-1.484931243		1.654284462		-2.176025221
F		-1.166359315		-1.280174117		-1.025319535
F		-0.154162878		-1.024894888		-3.218959618
F		0.519011999		0.431946937		-0.048406414
F		1.104101575		-2.094569656		-0.072449442
