12
-185.77729729
Al		0.274958687		-2.330237486		-1.827659656
Al		2.03675142		-0.540481944		-0.806449464
Al		-0.33666121		0.31084147		-1.802526447
F		3.6274902		-0.179484155		-0.030435447
F		-0.167491939		-4.034699378		-2.230169036
F		2.116460476		-1.839582959		-2.265857155
F		1.53122675		0.687556172		-2.241808298
F		-1.484949273		1.654305557		-2.176031086
F		-1.166612143		-1.280229673		-1.025634107
F		-0.15455976		-1.024986775		-3.218961995
F		0.519174382		0.432313181		-0.048480312
F		1.104408101		-2.094825848		-0.072529264
