12
-185.77729729
Al		0.274946681		-2.330283736		-1.827670578
Al		2.036794584		-0.540472148		-0.806428408
Al		-0.336692368		0.310877924		-1.802536581
F		3.627540156		-0.179472819		-0.030411077
F		-0.167505833		-4.034752904		-2.230181676
F		2.11678542		-1.840168005		-2.265392409
F		1.531263408		0.688216		-2.241331706
F		-1.484985333		1.654347747		-2.176042816
F		-1.167117799		-1.280340785		-1.026263251
F		-0.155353524		-1.025170549		-3.218966749
F		0.519499148		0.433045669		-0.048628108
F		1.105021153		-2.095338232		-0.072688908
