12
Properties=species:S:1:pos:R:3:forces:R:3 energy=-184.85843255 pbc="F F F"
Al    -1.577150961    2.3744378200000003    -1.236021491    1.392118    -1.08084    -1.276017
Al    -0.724474455    0.22717400599999998    -2.266405274    -4.346947    1.460283    2.298265
Al    -2.473572776    -0.826703118    -0.42975983700000003    0.910356    -2.661549    -1.784502
F    -0.752366041    3.814014336    -0.375533057    0.129185    0.109791    -0.106749
F    -2.7654413470000003    3.2435765930000002    -2.3775769920000003    -0.206772    0.025689    -0.005184
F    -1.27158328    -1.600793427    -1.606249061    -0.959454    1.026079    1.749672
F    -2.1067196619999997    1.022475983    0.03976116200000002    0.334617    -0.224206    -0.792846
F    -3.537310663    -1.429005632    1.0304559530000001    -0.205673    -0.558541    -0.057212
F    0.513728498    -0.265362541    -3.4691381040000002    -0.085687    0.473851    0.250834
F    -0.220282125    2.1450524140000002    -2.636030931    1.050124    1.194734    -0.51291
F    -2.4521223570000004    0.640795851    -2.5907738279999997    1.721633    -0.138222    0.495364
F    -0.396868068    0.306588639    -0.447659908    0.266501    0.372932    -0.258715
