      12
SCF Done            -166.67136359
Al           -0.183181013         1.737582772         2.067414420
Al            2.496810496         2.755691425         1.950282375
Al            1.520084084         2.452211784        -0.591742454
F             0.881131778         3.114834536         2.989024063
F            -1.825210683         2.546187522         2.106429186
F            -0.316229071        -0.001544666         2.693131830
F             1.747404953         1.023487193         1.812565865
F             3.111898145         1.789059053        -0.010488016
F             0.992101809         3.070631733        -2.260638212
F             1.767590894         3.905536187         0.672958867
F             4.370221368         3.015933977         2.155864780
F            -0.121332191         1.949303010         0.194950693
