12
Properties=species:S:1:pos:R:3:forces:R:3 energy=-186.52078949 pbc="F F F"
Al    -0.331619638    0.8890211600000001    -1.691860336    -0.066086    0.199047    0.057997
Al    -0.460591314    1.117205853    1.293785236    -0.004518    -0.056822    -0.009617
Al    -3.026370119    0.507772489    -1.879865742    0.003335    -0.064141    -0.004876
F    -3.602099261    0.321819408    -3.593518108    0.005466    -0.017151    -0.000417
F    -1.442029957    -0.638298301    -1.7162850449999998    0.014987    -0.016735    -0.09009
F    -1.841544287    2.035025603    -2.011430583    0.002782    0.011755    0.084733
F    -2.093919725    0.9868267390000001    0.43444382400000003    0.0087    -0.148797    0.009885
F    0.7775503269999999    0.9042634430000001    -0.227095511    -0.021498    0.191676    -0.004643
F    -0.630845375    2.8245319970000002    1.986847947    0.148749    0.063164    -0.075129
F    0.580700915    -0.38248445799999997    1.7385486449999998    -0.131704    -0.062067    0.069466
F    -4.216953092    0.19747187    -0.544295765    -0.006951    0.01849    0.001421
F    0.696640227    1.4596485369999999    -3.156117629    0.046738    -0.118418    -0.038731
