      12
SCF Done            -186.52078949
Al           -0.372888638         1.074304160        -1.820255336
Al           -0.446353314         1.067264853         1.281799236
Al           -3.016417119         0.442335489        -1.858503742
F            -3.529708261         0.305494408        -3.599551108
F            -1.355182957        -0.542328301        -1.885627045
F            -1.973804287         2.076719603        -1.849647583
F            -2.018808725         0.644230739         0.457088824
F             0.575561327         1.366439443        -0.296611511
F            -0.228874375         2.744058997         1.951069947
F             0.298025915        -0.378855458         2.089996645
F            -4.278480092         0.219339870        -0.580954765
F             0.759121227         1.190403537        -3.232837629
