12
-187.24475565
Al		0.349589034		-0.599315568		1.740408158
Al		2.350525539		-1.788754212		-0.51942988
Al		-0.892857261		-1.830386741		-0.991972477
F		3.476301362		-0.496552187		-1.112985149
F		-1.83457249		-0.564311734		-1.886229352
F		2.736659505		-3.56239048		-0.491568833
F		-1.226394863		-3.613193788		-1.069557059
F		1.896866872		-1.41460799		1.210786452
F		0.831841149		-1.508492484		-1.489269151
F		0.109056562		-1.172359581		3.443289377
F		0.405858988		1.135150887		1.198528925
F		-0.960947775		-1.452048977		0.794567566
