12
-187.24475565
Al		0.349169263		-0.599320958		1.740347009
Al		2.350769475		-1.78886815		-0.51917017
Al		-0.89255233		-1.830265752		-0.992152228
F		3.477870523		-0.498987521		-1.115250555
F		-1.833776519		-0.561846029		-1.883619393
F		2.734702803		-3.562927313		-0.488315484
F		-1.227355053		-3.612694421		-1.073235349
F		1.898482508		-1.410523228		1.210402024
F		0.832181984		-1.508488106		-1.489219497
F		0.110649483		-1.172339121		3.443521433
F		0.401166487		1.135090618		1.197845308
F		-0.959406741		-1.456093193		0.79541186
