12
-187.24475565
Al		0.348978458		-0.599323408		1.740319214
Al		2.350880355		-1.78891994		-0.51905212
Al		-0.892413725		-1.830210757		-0.992233933
F		3.478583778		-0.500094491		-1.116280285
F		-1.833414714		-0.560725254		-1.882433048
F		2.733813393		-3.563171328		-0.486836689
F		-1.227791503		-3.612467436		-1.074907299
F		1.899216888		-1.408666518		1.210227284
F		0.832336909		-1.508486116		-1.489196927
F		0.111373538		-1.172329821		3.443626913
F		0.399033532		1.135063223		1.197534573
F		-0.958706271		-1.457931473		0.79579563
