12
-187.24475565
Al		0.348902136		-0.599324388		1.740308096
Al		2.350924707		-1.788940656		-0.5190049
Al		-0.892358283		-1.830188759		-0.992266615
F		3.47886908		-0.500537279		-1.116692177
F		-1.833269992		-0.560276944		-1.88195851
F		2.733457629		-3.563268934		-0.486245171
F		-1.227966083		-3.612376642		-1.075576079
F		1.89951064		-1.407923834		1.210157388
F		0.832398879		-1.50848532		-1.489187899
F		0.11166316		-1.172326101		3.443669105
F		0.39818035		1.135052265		1.197410279
F		-0.958426083		-1.458666785		0.795949138
