12
-187.24475565
Al		0.348863975		-0.599324878		1.740302537
Al		2.350946883		-1.788951014		-0.51898129
Al		-0.892330562		-1.83017776		-0.992282956
F		3.479011731		-0.500758673		-1.116898123
F		-1.833197631		-0.560052789		-1.881721241
F		2.733279747		-3.563317737		-0.485949412
F		-1.228053373		-3.612331245		-1.075910469
F		1.899657516		-1.407552492		1.21012244
F		0.832429864		-1.508484922		-1.489183385
F		0.111807971		-1.172324241		3.443690201
F		0.397753759		1.135046786		1.197348132
F		-0.958285989		-1.459034441		0.796025892
