12
-187.24475565
Al		0.348787653		-0.599325858		1.740291419
Al		2.350991235		-1.78897173		-0.51893407
Al		-0.89227512		-1.830155762		-0.992315638
F		3.479297033		-0.501201461		-1.117310015
F		-1.833052909		-0.559604479		-1.881246703
F		2.732923983		-3.563415343		-0.485357894
F		-1.228227953		-3.612240451		-1.076579249
F		1.899951268		-1.406809808		1.210052544
F		0.832491834		-1.508484126		-1.489174357
F		0.112097593		-1.172320521		3.443732393
F		0.396900577		1.135035828		1.197223838
F		-0.958005801		-1.459769753		0.7961794
