12
-187.24475565
Al		0.349512712		-0.599316548		1.74039704
Al		2.350569891		-1.788774928		-0.51938266
Al		-0.892801819		-1.830364743		-0.992005159
F		3.476586664		-0.496994975		-1.113397041
F		-1.834427768		-0.563863424		-1.885754814
F		2.736303741		-3.562488086		-0.490977315
F		-1.226569443		-3.613102994		-1.070225839
F		1.897160624		-1.413865306		1.210716556
F		0.831903119		-1.508491688		-1.489260123
F		0.109346184		-1.172355861		3.443331569
F		0.405005806		1.135139929		1.198404631
F		-0.960667587		-1.452784289		0.794721074
