12
-187.24475565
Al		0.348444204		-0.599330268		1.740241388
Al		2.351190819		-1.789064952		-0.51872158
Al		-0.892025631		-1.830056771		-0.992462707
F		3.480580892		-0.503194007		-1.119163529
F		-1.83240166		-0.557587084		-1.879111282
F		2.731323045		-3.56385457		-0.482696063
F		-1.229013563		-3.611831878		-1.079588759
F		1.901273152		-1.40346773		1.209738012
F		0.832770699		-1.508480544		-1.489133731
F		0.113400892		-1.172303781		3.443922257
F		0.393061258		1.134986517		1.196664515
F		-0.956744955		-1.463078657		0.796870186
