12
-187.24475565
Al		0.348406043		-0.599330758		1.740235829
Al		2.351212995		-1.78907531		-0.51869797
Al		-0.89199791		-1.830045772		-0.992479048
F		3.480723543		-0.503415401		-1.119369475
F		-1.832329299		-0.557362929		-1.878874013
F		2.731145163		-3.563903373		-0.482400304
F		-1.229100853		-3.611786481		-1.079923149
F		1.901420028		-1.403096388		1.209703064
F		0.832801684		-1.508480146		-1.489129217
F		0.113545703		-1.172301921		3.443943353
F		0.392634667		1.134981038		1.196602368
F		-0.956604861		-1.463446313		0.79694694
