12
-187.24475565
Al		0.348215238		-0.599333208		1.740208034
Al		2.351323875		-1.7891271		-0.51857992
Al		-0.891859305		-1.829990777		-0.992560753
F		3.481436798		-0.504522371		-1.120399205
F		-1.831967494		-0.556242154		-1.877687668
F		2.730255753		-3.564147388		-0.480921509
F		-1.229537303		-3.611559496		-1.081595099
F		1.902154408		-1.401239678		1.209528324
F		0.832956609		-1.508478156		-1.489106647
F		0.114269758		-1.172292621		3.444048833
F		0.390501712		1.134953643		1.196291633
F		-0.955904391		-1.465284593		0.79733071
