12
-187.24475565
Al		0.348138916		-0.599334188		1.740196916
Al		2.351368227		-1.789147816		-0.5185327
Al		-0.891803863		-1.829968779		-0.992593435
F		3.4817221		-0.504965159		-1.120811097
F		-1.831822772		-0.555793844		-1.87721313
F		2.729899989		-3.564244994		-0.480329991
F		-1.229711883		-3.611468702		-1.082263879
F		1.90244816		-1.400496994		1.209458428
F		0.833018579		-1.50847736		-1.489097619
F		0.11455938		-1.172288901		3.444091025
F		0.38964853		1.134942685		1.196167339
F		-0.955624203		-1.466019905		0.797484218
