12
-187.24475565
Al		0.347833628		-0.599338108		1.740152444
Al		2.351545635		-1.78923068		-0.51834382
Al		-0.891582095		-1.829880787		-0.992724163
F		3.482863308		-0.506736311		-1.122458665
F		-1.831243884		-0.554000604		-1.875314978
F		2.728476933		-3.564635418		-0.477963919
F		-1.230410203		-3.611105526		-1.084938999
F		1.903623168		-1.397526258		1.209178844
F		0.833266459		-1.508474176		-1.489061507
F		0.115717868		-1.172274021		3.444259793
F		0.386235802		1.134898853		1.195670163
F		-0.954503451		-1.468961153		0.79809825
