12
-187.24475565
Al		0.34943639		-0.599317528		1.740385922
Al		2.350614243		-1.788795644		-0.51933544
Al		-0.892746377		-1.830342745		-0.992037841
F		3.476871966		-0.497437763		-1.113808933
F		-1.834283046		-0.563415114		-1.885280276
F		2.735947977		-3.562585692		-0.490385797
F		-1.226744023		-3.6130122		-1.070894619
F		1.897454376		-1.413122622		1.21064666
F		0.831965089		-1.508490892		-1.489251095
F		0.109635806		-1.172352141		3.443373761
F		0.404152624		1.135128971		1.198280337
F		-0.960387399		-1.453519601		0.794874582
