12
-187.24475565
Al		0.347642823		-0.599340558		1.740124649
Al		2.351656515		-1.78928247		-0.51822577
Al		-0.89144349		-1.829825792		-0.992805868
F		3.483576563		-0.507843281		-1.123488395
F		-1.830882079		-0.552879829		-1.874128633
F		2.727587523		-3.564879433		-0.476485124
F		-1.230846653		-3.610878541		-1.086610949
F		1.904357548		-1.395669548		1.209004104
F		0.833421384		-1.508472186		-1.489038937
F		0.116441923		-1.172264721		3.444365273
F		0.384102847		1.134871458		1.195359428
F		-0.953802981		-1.470799433		0.79848202
