12
-187.24475565
Al		0.347566501		-0.599341538		1.740113531
Al		2.351700867		-1.789303186		-0.51817855
Al		-0.891388048		-1.829803794		-0.99283855
F		3.483861865		-0.508286069		-1.123900287
F		-1.830737357		-0.552431519		-1.873654095
F		2.727231759		-3.564977039		-0.475893606
F		-1.231021233		-3.610787747		-1.087279729
F		1.9046513		-1.394926864		1.208934208
F		0.833483354		-1.50847139		-1.489029909
F		0.116731545		-1.172261001		3.444407465
F		0.383249665		1.1348605		1.195235134
F		-0.953522793		-1.471534745		0.798635528
