12
-187.24475565
Al		0.34752834		-0.599342028		1.740107972
Al		2.351723043		-1.789313544		-0.51815494
Al		-0.891360327		-1.829792795		-0.992854891
F		3.484004516		-0.508507463		-1.124106233
F		-1.830664996		-0.552207364		-1.873416826
F		2.727053877		-3.565025842		-0.475597847
F		-1.231108523		-3.61074235		-1.087614119
F		1.904798176		-1.394555522		1.20889926
F		0.833514339		-1.508470992		-1.489025395
F		0.116876356		-1.172259141		3.444428561
F		0.382823074		1.134855021		1.195172987
F		-0.953382699		-1.471902401		0.798712282
