12
-187.24475565
Al		0.347490179		-0.599342518		1.740102413
Al		2.351745219		-1.789323902		-0.51813133
Al		-0.891332606		-1.829781796		-0.992871232
F		3.484147167		-0.508728857		-1.124312179
F		-1.830592635		-0.551983209		-1.873179557
F		2.726875995		-3.565074645		-0.475302088
F		-1.231195813		-3.610696953		-1.087948509
F		1.904945052		-1.39418418		1.208864312
F		0.833545324		-1.508470594		-1.489020881
F		0.117021167		-1.172257281		3.444449657
F		0.382396483		1.134849542		1.19511084
F		-0.953242605		-1.472270057		0.798789036
