12
-187.24475565
Al		0.347452018		-0.599343008		1.740096854
Al		2.351767395		-1.78933426		-0.51810772
Al		-0.891304885		-1.829770797		-0.992887573
F		3.484289818		-0.508950251		-1.124518125
F		-1.830520274		-0.551759054		-1.872942288
F		2.726698113		-3.565123448		-0.475006329
F		-1.231283103		-3.610651556		-1.088282899
F		1.905091928		-1.393812838		1.208829364
F		0.833576309		-1.508470196		-1.489016367
F		0.117165978		-1.172255421		3.444470753
F		0.381969892		1.134844063		1.195048693
F		-0.953102511		-1.472637713		0.79886579
