12
-187.24475565
Al		0.349398229		-0.599318018		1.740380363
Al		2.350636419		-1.788806002		-0.51931183
Al		-0.892718656		-1.830331746		-0.992054182
F		3.477014617		-0.497659157		-1.114014879
F		-1.834210685		-0.563190959		-1.885043007
F		2.735770095		-3.562634495		-0.490090038
F		-1.226831313		-3.612966803		-1.071229009
F		1.897601252		-1.41275128		1.210611712
F		0.831996074		-1.508490494		-1.489246581
F		0.109780617		-1.172350281		3.443394857
F		0.403726033		1.135123492		1.19821819
F		-0.960247305		-1.453887257		0.794951336
