12
-187.24475565
Al		0.347337535		-0.599344478		1.740080177
Al		2.351833923		-1.789365334		-0.51803689
Al		-0.891221722		-1.8297378		-0.992936596
F		3.484717771		-0.509614433		-1.125135963
F		-1.830303191		-0.551086589		-1.872230481
F		2.726164467		-3.565269857		-0.474119052
F		-1.231544973		-3.610515365		-1.089286069
F		1.905532556		-1.392698812		1.20872452
F		0.833669264		-1.508469002		-1.489002825
F		0.117600411		-1.172249841		3.444534041
F		0.380690119		1.134827626		1.194862252
F		-0.952682229		-1.473740681		0.799096052
