12
-187.24475565
Al		0.346688798		-0.599352808		1.739985674
Al		2.352210915		-1.78954142		-0.51763552
Al		-0.890750465		-1.829550817		-0.993214393
F		3.487142838		-0.513378131		-1.128637045
F		-1.829073054		-0.547275954		-1.868196908
F		2.723140473		-3.566099508		-0.469091149
F		-1.233028903		-3.609743616		-1.094970699
F		1.908029448		-1.386385998		1.208130404
F		0.834196009		-1.508462236		-1.488926087
F		0.120062198		-1.172218221		3.444892673
F		0.373438072		1.134734483		1.193805753
F		-0.950300631		-1.479990833		0.80040087
