12
-187.24475565
Al		0.346536154		-0.599354768		1.739963438
Al		2.352299619		-1.789582852		-0.51754108
Al		-0.890639581		-1.829506821		-0.993279757
F		3.487713442		-0.514263707		-1.129460829
F		-1.82878361		-0.546379334		-1.867247832
F		2.722428945		-3.56629472		-0.467908113
F		-1.233378063		-3.609562028		-1.096308259
F		1.908616952		-1.38490063		1.207990612
F		0.834319949		-1.508460644		-1.488908031
F		0.120641442		-1.172210781		3.444977057
F		0.371731708		1.134712567		1.193557165
F		-0.949740255		-1.481461457		0.800707886
