12
-187.24475565
Al		0.346459832		-0.599355748		1.73995232
Al		2.352343971		-1.789603568		-0.51749386
Al		-0.890584139		-1.829484823		-0.993312439
F		3.487998744		-0.514706495		-1.129872721
F		-1.828638888		-0.545931024		-1.866773294
F		2.722073181		-3.566392326		-0.467316595
F		-1.233552643		-3.609471234		-1.096977039
F		1.908910704		-1.384157946		1.207920716
F		0.834381919		-1.508459848		-1.488899003
F		0.120931064		-1.172207061		3.445019249
F		0.370878526		1.134701609		1.193432871
F		-0.949460067		-1.482196769		0.800861394
