12
-187.24475565
Al		0.346421671		-0.599356238		1.739946761
Al		2.352366147		-1.789613926		-0.51747025
Al		-0.890556418		-1.829473824		-0.99332878
F		3.488141395		-0.514927889		-1.130078667
F		-1.828566527		-0.545706869		-1.866536025
F		2.721895299		-3.566441129		-0.467020836
F		-1.233639933		-3.609425837		-1.097311429
F		1.90905758		-1.383786604		1.207885768
F		0.834412904		-1.50845945		-1.488894489
F		0.121075875		-1.172205201		3.445040345
F		0.370451935		1.13469613		1.193370724
F		-0.949319973		-1.482564425		0.800938148
