12
-187.24475565
Al		0.346192705		-0.599359178		1.739913407
Al		2.352499203		-1.789676074		-0.51732859
Al		-0.890390092		-1.82940783		-0.993426826
F		3.488997301		-0.516256253		-1.131314343
F		-1.828132361		-0.544361939		-1.865112411
F		2.720828007		-3.566733947		-0.465246282
F		-1.234163673		-3.609153455		-1.099317769
F		1.909938836		-1.381558552		1.20767608
F		0.834598814		-1.508457062		-1.488867405
F		0.121944741		-1.172194041		3.445166921
F		0.367892389		1.134663256		1.192997842
F		-0.948479409		-1.484770361		0.801398672
