12
-187.24475565
Al		0.346154544		-0.599359668		1.739907848
Al		2.352521379		-1.789686432		-0.51730498
Al		-0.890362371		-1.829396831		-0.993443167
F		3.489139952		-0.516477647		-1.131520289
F		-1.82806		-0.544137784		-1.864875142
F		2.720650125		-3.56678275		-0.464950523
F		-1.234250963		-3.609108058		-1.099652159
F		1.910085712		-1.38118721		1.207641132
F		0.834629799		-1.508456664		-1.488862891
F		0.122089552		-1.172192181		3.445188017
F		0.367465798		1.134657777		1.192935695
F		-0.948339315		-1.485138017		0.801475426
