12
-187.24475565
Al		0.346116383		-0.599360158		1.739902289
Al		2.352543555		-1.78969679		-0.51728137
Al		-0.89033465		-1.829385832		-0.993459508
F		3.489282603		-0.516699041		-1.131726235
F		-1.827987639		-0.543913629		-1.864637873
F		2.720472243		-3.566831553		-0.464654764
F		-1.234338253		-3.609062661		-1.099986549
F		1.910232588		-1.380815868		1.207606184
F		0.834660784		-1.508456266		-1.488858377
F		0.122234363		-1.172190321		3.445209113
F		0.367039207		1.134652298		1.192873548
F		-0.948199221		-1.485505673		0.80155218
