12
-187.24475565
Al		0.345849256		-0.599363588		1.739863376
Al		2.352698787		-1.789769296		-0.5171161
Al		-0.890140603		-1.829308839		-0.993573895
F		3.49028116		-0.518248799		-1.133167857
F		-1.827481112		-0.542344544		-1.86297699
F		2.719227069		-3.567173174		-0.462584451
F		-1.234949283		-3.608744882		-1.102327279
F		1.91126072		-1.378216474		1.207361548
F		0.834877679		-1.50845348		-1.488826779
F		0.12324804		-1.172177301		3.445356785
F		0.36405307		1.134613945		1.192438519
F		-0.947218563		-1.488079265		0.802089458
