12
-187.24475565
Al		0.350008805		-0.599310178		1.740469307
Al		2.350281603		-1.788640274		-0.51968959
Al		-0.893162192		-1.83050773		-0.991792726
F		3.474732201		-0.494116853		-1.110719743
F		-1.835368461		-0.566777439		-1.888839311
F		2.738616207		-3.561853647		-0.494822182
F		-1.225434673		-3.613693155		-1.065878769
F		1.895251236		-1.418692752		1.21117088
F		0.831500314		-1.508496862		-1.489318805
F		0.107463641		-1.172380041		3.443057321
F		0.410551489		1.135211156		1.199212542
F		-0.962488809		-1.448004761		0.793723272
