12
-187.24475565
Al		0.350046966		-0.599309688		1.740474866
Al		2.350259427		-1.788629916		-0.5197132
Al		-0.893189913		-1.830518729		-0.991776385
F		3.47458955		-0.493895459		-1.110513797
F		-1.835440822		-0.567001594		-1.88907658
F		2.738794089		-3.561804844		-0.495117941
F		-1.225347383		-3.613738552		-1.065544379
F		1.89510436		-1.419064094		1.211205828
F		0.831469329		-1.50849726		-1.489323319
F		0.10731883		-1.172381901		3.443036225
F		0.41097808		1.135216635		1.199274689
F		-0.962628903		-1.447637105		0.793646518
