12
-187.24475565
Al		0.350123288		-0.599308708		1.740485984
Al		2.350215075		-1.7886092		-0.51976042
Al		-0.893245355		-1.830540727		-0.991743703
F		3.474304248		-0.493452671		-1.110101905
F		-1.835585544		-0.567449904		-1.889551118
F		2.739149853		-3.561707238		-0.495709459
F		-1.225172803		-3.613829346		-1.064875599
F		1.894810608		-1.419806778		1.211275724
F		0.831407359		-1.508498056		-1.489332347
F		0.107029208		-1.172385621		3.442994033
F		0.411831262		1.135227593		1.199398983
F		-0.962909091		-1.446901793		0.79349301
