12
-187.24475565
Al		0.350161449		-0.599308218		1.740491543
Al		2.350192899		-1.788598842		-0.51978403
Al		-0.893273076		-1.830551726		-0.991727362
F		3.474161597		-0.493231277		-1.109895959
F		-1.835657905		-0.567674059		-1.889788387
F		2.739327735		-3.561658435		-0.496005218
F		-1.225085513		-3.613874743		-1.064541209
F		1.894663732		-1.42017812		1.211310672
F		0.831376374		-1.508498454		-1.489336861
F		0.106884397		-1.172387481		3.442972937
F		0.412257853		1.135233072		1.19946113
F		-0.963049185		-1.446534137		0.793416256
