12
-187.24475565
Al		0.35019961		-0.599307728		1.740497102
Al		2.350170723		-1.788588484		-0.51980764
Al		-0.893300797		-1.830562725		-0.991711021
F		3.474018946		-0.493009883		-1.109690013
F		-1.835730266		-0.567898214		-1.890025656
F		2.739505617		-3.561609632		-0.496300977
F		-1.224998223		-3.61392014		-1.064206819
F		1.894516856		-1.420549462		1.21134562
F		0.831345389		-1.508498852		-1.489341375
F		0.106739586		-1.172389341		3.442951841
F		0.412684444		1.135238551		1.199523277
F		-0.963189279		-1.446166481		0.793339502
