12
-187.24475565
Al		0.350275932		-0.599306748		1.74050822
Al		2.350126371		-1.788567768		-0.51985486
Al		-0.893356239		-1.830584723		-0.991678339
F		3.473733644		-0.492567095		-1.109278121
F		-1.835874988		-0.568346524		-1.890500194
F		2.739861381		-3.561512026		-0.496892495
F		-1.224823643		-3.614010934		-1.063538039
F		1.894223104		-1.421292146		1.211415516
F		0.831283419		-1.508499648		-1.489350403
F		0.106449964		-1.172393061		3.442909649
F		0.413537626		1.135249509		1.199647571
F		-0.963469467		-1.445431169		0.793185994
