12
-187.24475565
Al		0.349703517		-0.599314098		1.740424835
Al		2.350459011		-1.788723138		-0.51950071
Al		-0.892940424		-1.830419738		-0.991923454
F		3.475873409		-0.495888005		-1.112367311
F		-1.834789573		-0.564984199		-1.886941159
F		2.737193151		-3.562244071		-0.49245611
F		-1.226132993		-3.613329979		-1.068553889
F		1.896426244		-1.415722016		1.210891296
F		0.831748194		-1.508493678		-1.489282693
F		0.108622129		-1.172365161		3.443226089
F		0.407138761		1.135167324		1.198715366
F		-0.961368057		-1.450946009		0.794337304
