12
-187.24475565
Al		0.350428576		-0.599304788		1.740530456
Al		2.350037667		-1.788526336		-0.5199493
Al		-0.893467123		-1.830628719		-0.991612975
F		3.47316304		-0.491681519		-1.108454337
F		-1.836164432		-0.569243144		-1.89144927
F		2.740572909		-3.561316814		-0.498075531
F		-1.224474483		-3.614192522		-1.062200479
F		1.8936356		-1.422777514		1.211555308
F		0.831159479		-1.50850124		-1.489368459
F		0.10587072		-1.172400501		3.442825265
F		0.41524399		1.135271425		1.199896159
F		-0.964029843		-1.443960545		0.792878978
