12
-187.24475565
Al		0.350619381		-0.599302338		1.740558251
Al		2.349926787		-1.788474546		-0.52006735
Al		-0.893605728		-1.830683714		-0.99153127
F		3.472449785		-0.490574549		-1.107424607
F		-1.836526237		-0.570363919		-1.892635615
F		2.741462319		-3.561072799		-0.499554326
F		-1.224038033		-3.614419507		-1.060528529
F		1.89290122		-1.424634224		1.211730048
F		0.831004554		-1.50850323		-1.489391029
F		0.105146665		-1.172409801		3.442719785
F		0.417376945		1.13529882		1.200206894
F		-0.964730313		-1.442122265		0.792495208
