12
-187.24475565
Al		0.350657542		-0.599301848		1.74056381
Al		2.349904611		-1.788464188		-0.52009096
Al		-0.893633449		-1.830694713		-0.991514929
F		3.472307134		-0.490353155		-1.107218661
F		-1.836598598		-0.570588074		-1.892872884
F		2.741640201		-3.561023996		-0.499850085
F		-1.223950743		-3.614464904		-1.060194139
F		1.892754344		-1.425005566		1.211764996
F		0.830973569		-1.508503628		-1.489395543
F		0.105001854		-1.172411661		3.442698689
F		0.417803536		1.135304299		1.200269041
F		-0.964870407		-1.441754609		0.792418454
