12
-187.24475565
Al		0.350772025		-0.599300378		1.740580487
Al		2.349838083		-1.788433114		-0.52016179
Al		-0.893716612		-1.83072771		-0.991465906
F		3.471879181		-0.489688973		-1.106600823
F		-1.836815681		-0.571260539		-1.893584691
F		2.742173847		-3.560877587		-0.500737362
F		-1.223688873		-3.614601095		-1.059190969
F		1.892313716		-1.426119592		1.21186984
F		0.830880614		-1.508504822		-1.489409085
F		0.104567421		-1.172417241		3.442635401
F		0.419083309		1.135320736		1.200455482
F		-0.965290689		-1.440651641		0.792188192
