12
-187.24475565
Al		0.350810186		-0.599299888		1.740586046
Al		2.349815907		-1.788422756		-0.5201854
Al		-0.893744333		-1.830738709		-0.991449565
F		3.47173653		-0.489467579		-1.106394877
F		-1.836888042		-0.571484694		-1.89382196
F		2.742351729		-3.560828784		-0.501033121
F		-1.223601583		-3.614646492		-1.058856579
F		1.89216684		-1.426490934		1.211904788
F		0.830849629		-1.50850522		-1.489413599
F		0.10442261		-1.172419101		3.442614305
F		0.4195099		1.135326215		1.200517629
F		-0.965430783		-1.440283985		0.792111438
