12
-187.24475565
Al		0.350848347		-0.599299398		1.740591605
Al		2.349793731		-1.788412398		-0.52020901
Al		-0.893772054		-1.830749708		-0.991433224
F		3.471593879		-0.489246185		-1.106188931
F		-1.836960403		-0.571708849		-1.894059229
F		2.742529611		-3.560779981		-0.50132888
F		-1.223514293		-3.614691889		-1.058522189
F		1.892019964		-1.426862276		1.211939736
F		0.830818644		-1.508505618		-1.489418113
F		0.104277799		-1.172420961		3.442593209
F		0.419936491		1.135331694		1.200579776
F		-0.965570877		-1.439916329		0.792034684
