12
-187.24475565
Al		0.351000991		-0.599297438		1.740613841
Al		2.349705027		-1.788370966		-0.52030345
Al		-0.893882938		-1.830793704		-0.99136786
F		3.471023275		-0.488360609		-1.105365147
F		-1.837249847		-0.572605469		-1.895008305
F		2.743241139		-3.560584769		-0.502511916
F		-1.223165133		-3.614873477		-1.057184629
F		1.89143246		-1.428347644		1.212079528
F		0.830694704		-1.50850721		-1.489436169
F		0.103698555		-1.172428401		3.442508825
F		0.421642855		1.13535361		1.200828364
F		-0.966131253		-1.438445705		0.791727668
