12
-187.24475565
Al		0.349779839		-0.599313118		1.740435953
Al		2.350414659		-1.788702422		-0.51954793
Al		-0.892995866		-1.830441736		-0.991890772
F		3.475588107		-0.495445217		-1.111955419
F		-1.834934295		-0.565432509		-1.887415697
F		2.737548915		-3.562146465		-0.493047628
F		-1.225958413		-3.613420773		-1.067885109
F		1.896132492		-1.4164647		1.210961192
F		0.831686224		-1.508494474		-1.489291721
F		0.108332507		-1.172368881		3.443183897
F		0.407991943		1.135178282		1.19883966
F		-0.961648245		-1.450210697		0.794183796
