12
-187.24475565
Al		0.351611567		-0.599289598		1.740702785
Al		2.349350211		-1.788205238		-0.52068121
Al		-0.894326474		-1.830969688		-0.991106404
F		3.468740859		-0.484818305		-1.102070011
F		-1.838407623		-0.576191949		-1.898804609
F		2.746087251		-3.559803921		-0.50724406
F		-1.221768493		-3.615599829		-1.051834389
F		1.889082444		-1.434289116		1.212638696
F		0.830198944		-1.508513578		-1.489508393
F		0.101381579		-1.172458161		3.442171289
F		0.428468311		1.135441274		1.201822716
F		-0.968372757		-1.432563209		0.790499604
