12
-187.24475565
Al		0.349856161		-0.599312138		1.740447071
Al		2.350370307		-1.788681706		-0.51959515
Al		-0.893051308		-1.830463734		-0.99185809
F		3.475302805		-0.495002429		-1.111543527
F		-1.835079017		-0.565880819		-1.887890235
F		2.737904679		-3.562048859		-0.493639146
F		-1.225783833		-3.613511567		-1.067216329
F		1.89583874		-1.417207384		1.211031088
F		0.831624254		-1.50849527		-1.489300749
F		0.108042885		-1.172372601		3.443141705
F		0.408845125		1.13518924		1.198963954
F		-0.961928433		-1.449475385		0.794030288
