12
-187.24475565
Al		0.351916855		-0.599285678		1.740747257
Al		2.349172803		-1.788122374		-0.52087009
Al		-0.894548242		-1.83105768		-0.990975676
F		3.467599651		-0.483047153		-1.100422443
F		-1.838986511		-0.577985189		-1.900702761
F		2.747510307		-3.559413497		-0.509610132
F		-1.221070173		-3.615963005		-1.049159269
F		1.887907436		-1.437259852		1.21291828
F		0.829951064		-1.508516762		-1.489544505
F		0.100223091		-1.172473041		3.442002521
F		0.431881039		1.135485106		1.202319892
F		-0.969493509		-1.429621961		0.789885572
