12
-187.24475565
Al		0.35210766		-0.599283228		1.740775052
Al		2.349061923		-1.788070584		-0.52098814
Al		-0.894686847		-1.831112675		-0.990893971
F		3.466886396		-0.481940183		-1.099392713
F		-1.839348316		-0.579105964		-1.901889106
F		2.748399717		-3.559169482		-0.511088927
F		-1.220633723		-3.61618999		-1.047487319
F		1.887173056		-1.439116562		1.21309302
F		0.829796139		-1.508518752		-1.489567075
F		0.099499036		-1.172482341		3.441897041
F		0.434013994		1.135512501		1.202630627
F		-0.970193979		-1.427783681		0.789501802
