12
-187.24475565
Al		0.352260304		-0.599281268		1.740797288
Al		2.348973219		-1.788029152		-0.52108258
Al		-0.894797731		-1.831156671		-0.990828607
F		3.466315792		-0.481054607		-1.098568929
F		-1.83963776		-0.580002584		-1.902838182
F		2.749111245		-3.55897427		-0.512271963
F		-1.220284563		-3.616371578		-1.046149759
F		1.886585552		-1.44060193		1.213232812
F		0.829672199		-1.508520344		-1.489585131
F		0.098919792		-1.172489781		3.441812657
F		0.435720358		1.135534417		1.202879215
F		-0.970754355		-1.426313057		0.789194786
