12
-187.24475565
Al		0.352374787		-0.599279798		1.740813965
Al		2.348906691		-1.787998078		-0.52115341
Al		-0.894880894		-1.831189668		-0.990779584
F		3.465887839		-0.480390425		-1.097951091
F		-1.839854843		-0.580675049		-1.903549989
F		2.749644891		-3.558827861		-0.51315924
F		-1.220022693		-3.616507769		-1.045146589
F		1.886144924		-1.441715956		1.213337656
F		0.829579244		-1.508521538		-1.489598673
F		0.098485359		-1.172495361		3.441749369
F		0.437000131		1.135550854		1.203065656
F		-0.971174637		-1.425210089		0.788964524
