12
-187.24475565
Al		0.352794558		-0.599274408		1.740875114
Al		2.348662755		-1.78788414		-0.52141312
Al		-0.895185825		-1.831310657		-0.990599833
F		3.464318678		-0.477955091		-1.095685685
F		-1.840650814		-0.583140754		-1.906159948
F		2.751601593		-3.558291028		-0.516412589
F		-1.219062503		-3.617007136		-1.041468299
F		1.884529288		-1.445800718		1.213722084
F		0.829238409		-1.508525916		-1.489648327
F		0.096892438		-1.172515821		3.441517313
F		0.441692632		1.135611123		1.203749273
F		-0.972715671		-1.421165873		0.78812023
