12
-187.24475565
Al		0.352909041		-0.599272938		1.740891791
Al		2.348596227		-1.787853066		-0.52148395
Al		-0.895268988		-1.831343654		-0.99055081
F		3.463890725		-0.477290909		-1.095067847
F		-1.840867897		-0.583813219		-1.906871755
F		2.752135239		-3.558144619		-0.517299866
F		-1.218800633		-3.617143327		-1.040465129
F		1.88408866		-1.446914744		1.213826928
F		0.829145454		-1.50852711		-1.489661869
F		0.096458005		-1.172521401		3.441454025
F		0.442972405		1.13562756		1.203935714
F		-0.973135953		-1.420062905		0.787889968
