12
-187.24475565
Al		0.352985363		-0.599271958		1.740902909
Al		2.348551875		-1.78783235		-0.52153117
Al		-0.89532443		-1.831365652		-0.990518128
F		3.463605423		-0.476848121		-1.094655955
F		-1.841012619		-0.584261529		-1.907346293
F		2.752491003		-3.558047013		-0.517891384
F		-1.218626053		-3.617234121		-1.039796349
F		1.883794908		-1.447657428		1.213896824
F		0.829083484		-1.508527906		-1.489670897
F		0.096168383		-1.172525121		3.441411833
F		0.443825587		1.135638518		1.204060008
F		-0.973416141		-1.419327593		0.78773646
