12
-187.24475565
Al		0.353061685		-0.599270978		1.740914027
Al		2.348507523		-1.787811634		-0.52157839
Al		-0.895379872		-1.83138765		-0.990485446
F		3.463320121		-0.476405333		-1.094244063
F		-1.841157341		-0.584709839		-1.907820831
F		2.752846767		-3.557949407		-0.518482902
F		-1.218451473		-3.617324915		-1.039127569
F		1.883501156		-1.448400112		1.21396672
F		0.829021514		-1.508528702		-1.489679925
F		0.095878761		-1.172528841		3.441369641
F		0.444678769		1.135649476		1.204184302
F		-0.973696329		-1.418592281		0.787582952
