12
-187.24475565
Al		0.353138007		-0.599269998		1.740925145
Al		2.348463171		-1.787790918		-0.52162561
Al		-0.895435314		-1.831409648		-0.990452764
F		3.463034819		-0.475962545		-1.093832171
F		-1.841302063		-0.585158149		-1.908295369
F		2.753202531		-3.557851801		-0.51907442
F		-1.218276893		-3.617415709		-1.038458789
F		1.883207404		-1.449142796		1.214036616
F		0.828959544		-1.508529498		-1.489688953
F		0.095589139		-1.172532561		3.441327449
F		0.445531951		1.135660434		1.204308596
F		-0.973976517		-1.417856969		0.787429444
