12
-187.24475565
Al		0.353176168		-0.599269508		1.740930704
Al		2.348440995		-1.78778056		-0.52164922
Al		-0.895463035		-1.831420647		-0.990436423
F		3.462892168		-0.475741151		-1.093626225
F		-1.841374424		-0.585382304		-1.908532638
F		2.753380413		-3.557802998		-0.519370179
F		-1.218189603		-3.617461106		-1.038124399
F		1.883060528		-1.449514138		1.214071564
F		0.828928559		-1.508529896		-1.489693467
F		0.095444328		-1.172534421		3.441306353
F		0.445958542		1.135665913		1.204370743
F		-0.974116611		-1.417489313		0.78735269
