12
Properties=species:S:1:pos:R:3:forces:R:3 energy=-187.24408242 pbc="F F F"
Al    0.37340799300000005    -0.6071141579999999    1.710739939    -0.027697    -0.005424    0.021679
Al    2.338614565    -1.8046064720000001    -0.491778497    0.005088    -0.012908    -0.002272
Al    -0.915295781    -1.8126719580000001    -0.965943343    0.028833    0.01738    -0.016049
F    3.412731907    -0.33684859300000003    -0.85517538    0.016737    0.019122    -0.012905
F    -1.8994786540000002    -0.633695888    -1.9477117970000002    -0.01353    0.019206    -0.011939
F    2.827893995    -3.572159294    -0.785902843    0.002251    -0.018165    0.000207
F    -1.150384566    -3.626424802    -0.97785072    -0.008298    -0.037079    -0.005237
F    1.796565197    -1.8223699930000001    1.331296802    0.028626    -0.008955    0.008521
F    0.812299164    -1.420745282    -1.424464865    -0.020076    -0.000382    -0.002848
F    -0.032916048    -0.946029563    3.4769004889999997    0.000979    -0.003251    0.008536
F    0.744226371    1.064781499    0.9432547360000001    -0.001604    0.036534    -0.009897
F    -1.063720068    -1.348239583    0.808601614    -0.011311    -0.006077    0.0222
