12
Properties=species:S:1:pos:R:3:forces:R:3 energy=-187.22459658 pbc="F F F"
Al    0.09974059299999999    -0.612184158    1.719306839    -0.145131    0.000325    -0.031767
Al    2.5480669650000003    -1.6751599719999999    -0.153185197    0.099642    0.087119    0.229799
Al    -0.603625981    -1.934544158    -1.272260443    0.205065    -0.07647    -0.162821
F    3.4051478069999996    -0.507924693    -1.4436601800000002    -0.019445    -0.003513    -0.112842
F    -1.9594696539999998    -0.563263788    -1.544716197    -0.075397    0.037328    0.081983
F    2.538435395    -3.529345094    -0.744413443    -0.047804    -0.033817    -0.076541
F    -1.418824566    -3.621140602    -0.91886522    -0.075082    -0.008109    0.056513
F    1.807904797    -1.505127293    1.515014702    0.005444    -0.0641    0.038128
F    1.1326219640000001    -1.561150482    -1.442802065    -0.001768    -0.002118    -0.001498
F    0.280555452    -1.181917963    3.474262189    0.057492    -0.002791    0.015266
F    0.357767471    1.109728799    1.158630536    -0.01279    0.001851    -0.00308
F    -0.991797068    -1.284575183    0.466830014    0.009774    0.064305    -0.033146
