      12
SCF Done            -187.22459658
Al            0.326426593        -0.599613158         1.737033839
Al            2.368479965        -1.778649972        -0.486391197
Al           -0.865975981        -1.839915158        -1.018479443
F             3.471674807        -0.496983693        -1.144400180
F            -1.847977654        -0.564111788        -1.857441197
F             2.721506395        -3.560903094        -0.512541443
F            -1.246858566        -3.615138602        -1.053773220
F             1.886843797        -1.426310293         1.238477702
F             0.859401964        -1.508138482        -1.485254065
F             0.125076452        -1.172153963         3.445623189
F             0.402121471         1.135102799         1.197984536
F            -0.962946068        -1.440501183         0.765125014
