12
Properties=species:S:1:pos:R:3:forces:R:3 energy=-182.91438982 pbc="F F F"
Al    0.98428658    0.393913417    2.605676573    -0.012465    -0.036464    0.056867
Al    1.1345372    1.1902836    -0.0351063    -2.391665    -2.246842    0.432829
Al    -0.6201741620000001    1.1821001500000001    -2.1685192730000002    -0.047053    -0.019455    -0.046078
F    -1.651443172    -0.395628053    -2.2362218059999996    -0.029635    0.013559    -0.085977
F    2.091907253    -0.180501753    0.33080845200000003    -2.788695    5.126878    -2.807667
F    0.06939993900000001    1.78995489    -3.810192933    -0.058411    -0.056658    0.014508
F    -0.052183810000000004    1.581984353    -0.954065149    5.436671    -2.639246    2.328448
F    2.4420162569999997    2.2046510120000002    -0.307045043    -2.724077    -2.55913    0.492985
F    1.553138739    0.08416220499999999    -1.272354654    -0.082184    3.797331    5.245794
F    0.762749617    1.181655129    1.4708573390000002    2.730173    -1.309682    -5.725014
F    2.5641507690000003    0.564422176    3.613165037    -0.06091    -0.055434    0.00708
F    0.043684175    -1.2283488519999999    2.807771971    0.028248    -0.014861    0.086226
