12
Properties=species:S:1:pos:R:3:forces:R:3 energy=-183.37168742 pbc="F F F"
Al    1.1594120799999998    -0.046266083    2.420802073    0.120112    0.31511    -0.468021
Al    1.1547602000000001    1.0746076    -0.0609998    0.35785    0.336182    -0.064759
Al    -0.413594162    0.72646365    -2.259813773    0.402861    0.176193    0.373356
F    -1.8225471720000002    -0.461807053    -2.303493806    0.053306    0.001533    0.097458
F    2.484926253    -0.397636753    0.942552452    1.772429    -3.517821    1.071094
F    0.099175939    1.78681489    -3.6292549330000003    0.035121    0.034369    -0.009392
F    -0.42032381    2.3167663530000002    -1.0202286489999999    -3.574977    1.824432    -0.744871
F    2.5178827569999997    2.355190512    -0.30768804299999997    2.613364    2.455119    -0.472949
F    1.486544239    0.09281120500000004    -2.028222654    0.447542    -2.866981    -2.871228
F    0.578056117    1.826314629    1.9505468389999998    -2.250089    1.173578    3.197442
F    2.481062769    0.616726676    3.458263037    0.037049    0.033427    -0.003662
F    -0.060308324999999996    -1.327498352    2.9402004710000003    -0.014567    0.034859    -0.104467
