      12
SCF Done            -183.37168732
Al            1.283194080         0.051702917         2.438816073
Al            1.366259200         1.273300600        -0.099275800
Al           -0.315419162         0.837012650        -2.317996773
F            -1.667132172        -0.369964053        -2.212120806
F             2.215486253        -0.656744753         0.893947452
F             0.053866939         1.824342890        -3.797766933
F            -0.677233810         2.081395353        -0.876368649
F             2.797595757         2.617966512        -0.358309043
F             1.273917239        -0.194205795        -1.907770654
F             0.264333117         1.618853629         1.925349839
F             2.547718769         0.599252676         3.622911037
F             0.019392675        -1.198461352         2.806278471
