      12
SCF Done            -157.63560175
Al            1.283194462         0.051703316         2.438816237
Al            1.366259200         1.273300600        -0.099275800
Al           -0.315418785         0.837012964        -2.317997073
F            -1.667131804        -0.369963744        -2.212121677
F             2.215486192        -0.656744754         0.893947513
F             0.053867784         1.824343654        -3.797766794
F            -0.677233826         2.081395281        -0.876368695
F             2.797594953         2.617966509        -0.358309044
F             1.273917423        -0.194205672        -1.907770777
F             0.264333271         1.618853823         1.925349902
F             2.547719530         0.599253419         3.622910609
F             0.019393159        -1.198460859         2.806279186
