12
-186.56215295
Al		-0.363890138		1.03336194		-1.81735593
Al		-0.444061071		1.075036621		1.276224565
Al		-3.021407475		0.458224936		-1.859197719
F		-3.532326009		0.314578346		-3.601364851
F		-1.373265486		-0.558479384		-1.842087542
F		-1.940140985		2.064503763		-1.892114421
F		-2.033000221		0.716008103		0.456689083
F		0.590197896		1.268635643		-0.292763701
F		-0.302308171		2.73650353		1.990066725
F		0.365287588		-0.352528167		2.048979614
F		-4.278115963		0.211038228		-0.579278023
F		0.744014225		1.245835541		-3.23118744
