12
-186.56215295
Al		-0.363822588		1.03339673		-1.816297327
Al		-0.442153116		1.075397086		1.273504547
Al		-3.022150161		0.458060765		-1.859389974
F		-3.532635486		0.314495851		-3.602183396
F		-1.37129815		-0.556650424		-1.841989444
F		-1.937594931		2.06365495		-1.891965251
F		-2.032371243		0.716153227		0.45717097
F		0.587088636		1.267982816		-0.291759964
F		-0.302553766		2.735192493		1.989676202
F		0.364525778		-0.351450615		2.048543542
F		-4.278802061		0.210904479		-0.578516178
F		0.742515028		1.24553746		-3.229828138
