12
-186.56215295
Al		-0.363755038		1.03343152		-1.815238724
Al		-0.440245161		1.075757551		1.270784529
Al		-3.022892847		0.457896594		-1.859582229
F		-3.532944963		0.314413356		-3.603001941
F		-1.369330814		-0.554821464		-1.841891346
F		-1.935048877		2.062806137		-1.891816081
F		-2.031742265		0.716298351		0.457652857
F		0.583979376		1.267329989		-0.290756227
F		-0.302799361		2.733881456		1.989285679
F		0.363763968		-0.350373063		2.04810747
F		-4.279488159		0.21077073		-0.577754333
F		0.741015831		1.245239379		-3.228468836
