12
-186.56215295
Al		-0.363996288		1.03330727		-1.819019449
Al		-0.447059286		1.074470176		1.280498879
Al		-3.020240397		0.458482919		-1.858895604
F		-3.531839688		0.314707981		-3.600078566
F		-1.376357014		-0.561353464		-1.842241696
F		-1.944141927		2.065837612		-1.892348831
F		-2.033988615		0.715780051		0.455931832
F		0.595083876		1.269661514		-0.294341002
F		-0.301922236		2.738563731		1.990680404
F		0.366484718		-0.354221463		2.04966487
F		-4.277037809		0.211248405		-0.580475208
F		0.746370106		1.246303954		-3.233323486
