12
-186.56215295
Al		-0.363668188		1.03347625		-1.813877663
Al		-0.437792076		1.076221006		1.267287363
Al		-3.023847729		0.457685517		-1.859829414
F		-3.533342862		0.314307291		-3.604054356
F		-1.366801382		-0.552469944		-1.84176522
F		-1.931775379		2.061714806		-1.891624291
F		-2.030933579		0.716484939		0.458272426
F		0.579981756		1.26649064		-0.289465708
F		-0.303115126		2.732195837		1.988783578
F		0.362784498		-0.348987639		2.047546806
F		-4.280370285		0.210598767		-0.576774818
F		0.739088292		1.244856132		-3.226721162
