12
-186.56215295
Al		-0.363648888		1.03348619		-1.813575205
Al		-0.437246946		1.076323996		1.266510215
Al		-3.024059925		0.457638611		-1.859884344
F		-3.533431284		0.314283721		-3.604288226
F		-1.366239286		-0.551947384		-1.841737192
F		-1.931047935		2.061472288		-1.891581671
F		-2.030753871		0.716526403		0.458410108
F		0.579093396		1.266304118		-0.289178926
F		-0.303185296		2.731821255		1.988672
F		0.362566838		-0.348679767		2.047422214
F		-4.280566313		0.210560553		-0.576557148
F		0.73865995		1.244770966		-3.22633279
