12
-186.56215295
Al		-0.363619938		1.0335011		-1.813121518
Al		-0.436429251		1.076478481		1.265344493
Al		-3.024378219		0.457568252		-1.859966739
F		-3.533563917		0.314248366		-3.604639031
F		-1.365396142		-0.551163544		-1.84169515
F		-1.929956769		2.061108511		-1.891517741
F		-2.030484309		0.716588599		0.458616631
F		0.577760856		1.266024335		-0.288748753
F		-0.303290551		2.731259382		1.988504633
F		0.362240348		-0.348217959		2.047235326
F		-4.280860355		0.210503232		-0.576230643
F		0.738017437		1.244643217		-3.225750232
