12
-186.56215295
Al		-0.363610288		1.03350607		-1.812970289
Al		-0.436156686		1.076529976		1.264955919
Al		-3.024484317		0.457544799		-1.859994204
F		-3.533608128		0.314236581		-3.604755966
F		-1.365115094		-0.550902264		-1.841681136
F		-1.929593047		2.060987252		-1.891496431
F		-2.030394455		0.716609331		0.458685472
F		0.577316676		1.265931074		-0.288605362
F		-0.303325636		2.731072091		1.988448844
F		0.362131518		-0.348064023		2.04717303
F		-4.280958369		0.210484125		-0.576121808
F		0.737803266		1.244600634		-3.225556046
