12
-186.56215295
Al		-0.363581338		1.03352098		-1.812516602
Al		-0.435338991		1.076684461		1.263790197
Al		-3.024802611		0.45747444		-1.860076599
F		-3.533740761		0.314201226		-3.605106771
F		-1.36427195		-0.550118424		-1.841639094
F		-1.928501881		2.060623475		-1.891432501
F		-2.030124893		0.716671527		0.458891995
F		0.575984136		1.265651291		-0.288175189
F		-0.303430891		2.730510218		1.988281477
F		0.361805028		-0.347602215		2.046986142
F		-4.281252411		0.210426804		-0.575795303
F		0.737160753		1.244472885		-3.224973488
