12
-186.56215295
Al		-0.363976988		1.03331721		-1.818716991
Al		-0.446514156		1.074573166		1.279721731
Al		-3.020452593		0.458436013		-1.858950534
F		-3.53192811		0.314684411		-3.600312436
F		-1.375794918		-0.560830904		-1.842213668
F		-1.943414483		2.065595094		-1.892306211
F		-2.033808907		0.715821515		0.456069514
F		0.594195516		1.269474992		-0.29405422
F		-0.301992406		2.738189149		1.990568826
F		0.366267058		-0.353913591		2.049540278
F		-4.277233837		0.211210191		-0.580257538
F		0.745941764		1.246218788		-3.232935114
