12
-186.56215295
Al		-0.363523438		1.0335508		-1.811609228
Al		-0.433703601		1.076993431		1.261458753
Al		-3.025439199		0.457333722		-1.860241389
F		-3.534006027		0.314130516		-3.605808381
F		-1.362585662		-0.548550744		-1.84155501
F		-1.926319549		2.059895921		-1.891304641
F		-2.029585769		0.716795919		0.459305041
F		0.573319056		1.265091725		-0.287314843
F		-0.303641401		2.729386472		1.987946743
F		0.361152048		-0.346678599		2.046612366
F		-4.281840495		0.210312162		-0.575142293
F		0.735875727		1.244217387		-3.223808372
