12
-186.56215295
Al		-0.363504138		1.03356074		-1.81130677
Al		-0.433158471		1.077096421		1.260681605
Al		-3.025651395		0.457286816		-1.860296319
F		-3.534094449		0.314106946		-3.606042251
F		-1.362023566		-0.548028184		-1.841526982
F		-1.925592105		2.059653403		-1.891262021
F		-2.029406061		0.716837383		0.459442723
F		0.572430696		1.264905203		-0.287028061
F		-0.303711571		2.72901189		1.987835165
F		0.360934388		-0.346370727		2.046487774
F		-4.282036523		0.210273948		-0.574924623
F		0.735447385		1.244132221		-3.22342
