12
-186.56215295
Al		-0.363455888		1.03358559		-1.810550625
Al		-0.431795646		1.077353896		1.258738735
Al		-3.026181885		0.457169551		-1.860433644
F		-3.534315504		0.314048021		-3.606626926
F		-1.360618326		-0.546721784		-1.841456912
F		-1.923773495		2.059047108		-1.891155471
F		-2.028956791		0.716941043		0.459786928
F		0.570209796		1.264438898		-0.286311106
F		-0.303886996		2.728075435		1.98755622
F		0.360390238		-0.345601047		2.046176294
F		-4.282526593		0.210178413		-0.574380448
F		0.73437653		1.243919306		-3.22244907
