12
-186.56215295
Al		-0.363426938		1.0336005		-1.810096938
Al		-0.430977951		1.077508381		1.257573013
Al		-3.026500179		0.457099192		-1.860516039
F		-3.534448137		0.314012666		-3.606977731
F		-1.359775182		-0.545937944		-1.84141487
F		-1.922682329		2.058683331		-1.891091541
F		-2.028687229		0.717003239		0.459993451
F		0.568877256		1.264159115		-0.285880933
F		-0.303992251		2.727513562		1.987388853
F		0.360063748		-0.345139239		2.045989406
F		-4.282820635		0.210121092		-0.574053943
F		0.733734017		1.243791557		-3.221866512
