12
-186.56215295
Al		-0.363417288		1.03360547		-1.809945709
Al		-0.430705386		1.077559876		1.257184439
Al		-3.026606277		0.457075739		-1.860543504
F		-3.534492348		0.314000881		-3.607094666
F		-1.359494134		-0.545676664		-1.841400856
F		-1.922318607		2.058562072		-1.891070231
F		-2.028597375		0.717023971		0.460062292
F		0.568433076		1.264065854		-0.285737542
F		-0.304027336		2.727326271		1.987333064
F		0.359954918		-0.344985303		2.04592711
F		-4.282918649		0.210101985		-0.573945108
F		0.733519846		1.243748974		-3.221672326
