12
-186.56215295
Al		-0.363407638		1.03361044		-1.80979448
Al		-0.430432821		1.077611371		1.256795865
Al		-3.026712375		0.457052286		-1.860570969
F		-3.534536559		0.313989096		-3.607211601
F		-1.359213086		-0.545415384		-1.841386842
F		-1.921954885		2.058440813		-1.891048921
F		-2.028507521		0.717044703		0.460131133
F		0.567988896		1.263972593		-0.285594151
F		-0.304062421		2.72713898		1.987277275
F		0.359846088		-0.344831367		2.045864814
F		-4.283016663		0.210082878		-0.573836273
F		0.733305675		1.243706391		-3.22147814
