12
-186.56215295
Al		-0.363378688		1.03362535		-1.809340793
Al		-0.429615126		1.077765856		1.255630143
Al		-3.027030669		0.456981927		-1.860653364
F		-3.534669192		0.313953741		-3.607562406
F		-1.358369942		-0.544631544		-1.8413448
F		-1.920863719		2.058077036		-1.890984991
F		-2.028237959		0.717106899		0.460337656
F		0.566656356		1.26369281		-0.285163978
F		-0.304167676		2.726577107		1.987109908
F		0.359519598		-0.344369559		2.045677926
F		-4.283310705		0.210025557		-0.573509768
F		0.732663162		1.243578642		-3.220895582
