12
-186.56215295
Al		-0.363369038		1.03363032		-1.809189564
Al		-0.429342561		1.077817351		1.255241569
Al		-3.027136767		0.456958474		-1.860680829
F		-3.534713403		0.313941956		-3.607679341
F		-1.358088894		-0.544370264		-1.841330786
F		-1.920499997		2.057955777		-1.890963681
F		-2.028148105		0.717127631		0.460406497
F		0.566212176		1.263599549		-0.285020587
F		-0.304202761		2.726389816		1.987054119
F		0.359410768		-0.344215623		2.04561563
F		-4.283408719		0.21000645		-0.573400933
F		0.732448991		1.243536059		-3.220701396
