12
-186.56215295
Al		-0.363291838		1.03367008		-1.807979732
Al		-0.427162041		1.078229311		1.252132977
Al		-3.027985551		0.45677085		-1.860900549
F		-3.535067091		0.313847676		-3.608614821
F		-1.35584051		-0.542280024		-1.841218674
F		-1.917590221		2.056985705		-1.890793201
F		-2.027429273		0.717293487		0.460957225
F		0.562658736		1.262853461		-0.283873459
F		-0.304483441		2.724891488		1.986607807
F		0.358540128		-0.342984135		2.045117262
F		-4.284192831		0.209853594		-0.572530253
F		0.730735623		1.243195395		-3.219147908
