12
-186.56215295
Al		-0.363282188		1.03367505		-1.807828503
Al		-0.426889476		1.078280806		1.251744403
Al		-3.028091649		0.456747397		-1.860928014
F		-3.535111302		0.313835891		-3.608731756
F		-1.355559462		-0.542018744		-1.84120466
F		-1.917226499		2.056864446		-1.890771891
F		-2.027339419		0.717314219		0.461026066
F		0.562214556		1.2627602		-0.283730068
F		-0.304518526		2.724704197		1.986552018
F		0.358431298		-0.342830199		2.045054966
F		-4.284290845		0.209834487		-0.572421418
F		0.730521452		1.243152812		-3.218953722
