12
-186.56215295
Al		-0.363272538		1.03368002		-1.807677274
Al		-0.426616911		1.078332301		1.251355829
Al		-3.028197747		0.456723944		-1.860955479
F		-3.535155513		0.313824106		-3.608848691
F		-1.355278414		-0.541757464		-1.841190646
F		-1.916862777		2.056743187		-1.890750581
F		-2.027249565		0.717334951		0.461094907
F		0.561770376		1.262666939		-0.283586677
F		-0.304553611		2.724516906		1.986496229
F		0.358322468		-0.342676263		2.04499267
F		-4.284388859		0.20981538		-0.572312583
F		0.730307281		1.243110229		-3.218759536
