12
-186.56215295
Al		-0.363214638		1.03370984		-1.8067699
Al		-0.424981521		1.078641271		1.249024385
Al		-3.028834335		0.456583226		-1.861120269
F		-3.535420779		0.313753396		-3.609550301
F		-1.353592126		-0.540189784		-1.841106562
F		-1.914680445		2.056015633		-1.890622721
F		-2.026710441		0.717459343		0.461507953
F		0.559105296		1.262107373		-0.282726331
F		-0.304764121		2.72339316		1.986161495
F		0.357669488		-0.341752647		2.044618894
F		-4.284976943		0.209700738		-0.571659573
F		0.729022255		1.242854731		-3.21759442
