12
-186.56215295
Al		-0.363166388		1.03373469		-1.806013755
Al		-0.423618696		1.078898746		1.247081515
Al		-3.029364825		0.456465961		-1.861257594
F		-3.535641834		0.313694471		-3.610134976
F		-1.352186886		-0.538883384		-1.841036492
F		-1.912861835		2.055409338		-1.890516171
F		-2.026261171		0.717563003		0.461852158
F		0.556884396		1.261641068		-0.282009376
F		-0.304939546		2.722456705		1.98588255
F		0.357125338		-0.340982967		2.044307414
F		-4.285467013		0.209605203		-0.571115398
F		0.7279514		1.242641816		-3.21662349
