12
-186.56215295
Al		-0.363156738		1.03373966		-1.805862526
Al		-0.423346131		1.078950241		1.246692941
Al		-3.029470923		0.456442508		-1.861285059
F		-3.535686045		0.313682686		-3.610251911
F		-1.351905838		-0.538622104		-1.841022478
F		-1.912498113		2.055288079		-1.890494861
F		-2.026171317		0.717583735		0.461920999
F		0.556440216		1.261547807		-0.281865985
F		-0.304974631		2.722269414		1.985826761
F		0.357016508		-0.340829031		2.044245118
F		-4.285565027		0.209586096		-0.571006563
F		0.727737229		1.242599233		-3.216429304
