12
-186.56215295
Al		-0.363127788		1.03375457		-1.805408839
Al		-0.422528436		1.079104726		1.245527219
Al		-3.029789217		0.456372149		-1.861367454
F		-3.535818678		0.313647331		-3.610602716
F		-1.351062694		-0.537838264		-1.840980436
F		-1.911406947		2.054924302		-1.890430931
F		-2.025901755		0.717645931		0.462127522
F		0.555107676		1.261268024		-0.281435812
F		-0.305079886		2.721707541		1.985659394
F		0.356690018		-0.340367223		2.04405823
F		-4.285859069		0.209528775		-0.570680058
F		0.727094716		1.242471484		-3.215846746
