12
-186.56215295
Al		-0.363098838		1.03376948		-1.804955152
Al		-0.421710741		1.079259211		1.244361497
Al		-3.030107511		0.45630179		-1.861449849
F		-3.535951311		0.313611976		-3.610953521
F		-1.35021955		-0.537054424		-1.840938394
F		-1.910315781		2.054560525		-1.890367001
F		-2.025632193		0.717708127		0.462334045
F		0.553775136		1.260988241		-0.281005639
F		-0.305185141		2.721145668		1.985492027
F		0.356363528		-0.339905415		2.043871342
F		-4.286153111		0.209471454		-0.570353553
F		0.726452203		1.242343735		-3.215264188
