12
-186.56215295
Al		-0.363079538		1.03377942		-1.804652694
Al		-0.421165611		1.079362201		1.243584349
Al		-3.030319707		0.456254884		-1.861504779
F		-3.536039733		0.313588406		-3.611187391
F		-1.349657454		-0.536531864		-1.840910366
F		-1.909588337		2.054318007		-1.890324381
F		-2.025452485		0.717749591		0.462471727
F		0.552886776		1.260801719		-0.280718857
F		-0.305255311		2.720771086		1.985380449
F		0.356145868		-0.339597543		2.04374675
F		-4.286349139		0.20943324		-0.570135883
F		0.726023861		1.242258569		-3.214875816
