12
-186.56215295
Al		-0.364121738		1.03324266		-1.820985426
Al		-0.450602631		1.073800741		1.285550341
Al		-3.018861123		0.458787808		-1.858538559
F		-3.531264945		0.314861186		-3.598558411
F		-1.380010638		-0.564750104		-1.842423878
F		-1.948870313		2.067413979		-1.892625861
F		-2.035156717		0.715510535		0.455036899
F		0.600858216		1.270873907		-0.296205085
F		-0.301466131		2.740998514		1.991405661
F		0.367899508		-0.356222631		2.050474718
F		-4.275763627		0.211496796		-0.581890063
F		0.749154329		1.246857533		-3.235847904
