12
-186.56215295
Al		-0.364131388		1.03323769		-1.821136655
Al		-0.450875196		1.073749246		1.285938915
Al		-3.018755025		0.458811261		-1.858511094
F		-3.531220734		0.314872971		-3.598441476
F		-1.380291686		-0.565011384		-1.842437892
F		-1.949234035		2.067535238		-1.892647171
F		-2.035246571		0.715489803		0.454968058
F		0.601302396		1.270967168		-0.296348476
F		-0.301431046		2.741185805		1.99146145
F		0.368008338		-0.356376567		2.050537014
F		-4.275665613		0.211515903		-0.581998898
F		0.7493685		1.246900116		-3.23604209
