12
-186.56215295
Al		-0.364150688		1.03322775		-1.821439113
Al		-0.451420326		1.073646256		1.286716063
Al		-3.018542829		0.458858167		-1.858456164
F		-3.531132312		0.314896541		-3.598207606
F		-1.380853782		-0.565533944		-1.84246592
F		-1.949961479		2.067777756		-1.892689791
F		-2.035426279		0.715448339		0.454830376
F		0.602190756		1.27115369		-0.296635258
F		-0.301360876		2.741560387		1.991573028
F		0.368225998		-0.356684439		2.050661606
F		-4.275469585		0.211554117		-0.582216568
F		0.749796842		1.246985282		-3.236430462
