12
-186.56215295
Al		-0.364189288		1.03320787		-1.822044029
Al		-0.452510586		1.073440276		1.288270359
Al		-3.018118437		0.458951979		-1.858346304
F		-3.530955468		0.314943681		-3.597739866
F		-1.381977974		-0.566579064		-1.842521976
F		-1.951416367		2.068262792		-1.892775031
F		-2.035785695		0.715365411		0.454555012
F		0.603967476		1.271526734		-0.297208822
F		-0.301220536		2.742309551		1.991796184
F		0.368661318		-0.357300183		2.05091079
F		-4.275077529		0.211630545		-0.582651908
F		0.750653526		1.247155614		-3.237207206
