12
-186.56215295
Al		-0.364044538		1.03328242		-1.819775594
Al		-0.448422111		1.074212701		1.282441749
Al		-3.019709907		0.458600184		-1.858758279
F		-3.531618633		0.314766906		-3.599493891
F		-1.377762254		-0.562659864		-1.842311766
F		-1.945960537		2.066443907		-1.892455381
F		-2.034437885		0.715676391		0.455587627
F		0.597304776		1.270127819		-0.295057957
F		-0.301746811		2.739500186		1.990959349
F		0.367028868		-0.354991143		2.04997635
F		-4.276547739		0.21134394		-0.581019383
F		0.747440961		1.246516869		-3.234294416
