12
-186.56215295
Al		-0.364218238		1.03319296		-1.822497716
Al		-0.453328281		1.073285791		1.289436081
Al		-3.017800143		0.459022338		-1.858263909
F		-3.530822835		0.314979036		-3.597389061
F		-1.382821118		-0.567362904		-1.842564018
F		-1.952507533		2.068626569		-1.892838961
F		-2.036055257		0.715303215		0.454348489
F		0.605300016		1.271806517		-0.297638995
F		-0.301115281		2.742871424		1.991963551
F		0.368987808		-0.357761991		2.051097678
F		-4.274783487		0.211687866		-0.582978413
F		0.751296039		1.247283363		-3.237789764
