12
-186.56215295
Al		-0.364247188		1.03317805		-1.822951403
Al		-0.454145976		1.073131306		1.290601803
Al		-3.017481849		0.459092697		-1.858181514
F		-3.530690202		0.315014391		-3.597038256
F		-1.383664262		-0.568146744		-1.84260606
F		-1.953598699		2.068990346		-1.892902891
F		-2.036324819		0.715241019		0.454141966
F		0.606632556		1.2720863		-0.298069168
F		-0.301010026		2.743433297		1.992130918
F		0.369314298		-0.358223799		2.051284566
F		-4.274489445		0.211745187		-0.583304918
F		0.751938552		1.247411112		-3.238372322
