12
-186.56215295
Al		-0.364295438		1.0331532		-1.823707548
Al		-0.455508801		1.072873831		1.292544673
Al		-3.016951359		0.459209962		-1.858044189
F		-3.530469147		0.315073316		-3.596453581
F		-1.385069502		-0.569453144		-1.84267613
F		-1.955417309		2.069596641		-1.893009441
F		-2.036774089		0.715137359		0.453797761
F		0.608853456		1.272552605		-0.298786123
F		-0.300834601		2.744369752		1.992409863
F		0.369858448		-0.358993479		2.051596046
F		-4.273999375		0.211840722		-0.583849093
F		0.753009407		1.247624027		-3.239343252
