12
-186.56215295
Al		-0.364054188		1.03327745		-1.819926823
Al		-0.448694676		1.074161206		1.282830323
Al		-3.019603809		0.458623637		-1.858730814
F		-3.531574422		0.314778691		-3.599376956
F		-1.378043302		-0.562921144		-1.84232578
F		-1.946324259		2.066565166		-1.892476691
F		-2.034527739		0.715655659		0.455518786
F		0.597748956		1.27022108		-0.295201348
F		-0.301711726		2.739687477		1.991015138
F		0.367137698		-0.355145079		2.050038646
F		-4.276449725		0.211363047		-0.581128218
F		0.747655132		1.246559452		-3.234488602
