12
-186.56215295
Al		-0.364372638		1.03311344		-1.82491738
Al		-0.457689321		1.072461871		1.295653265
Al		-3.016102575		0.459397586		-1.857824469
F		-3.530115459		0.315167596		-3.595518101
F		-1.387317886		-0.571543384		-1.842788242
F		-1.958327085		2.070566713		-1.893179921
F		-2.037492921		0.714971503		0.453247033
F		0.612406896		1.273298693		-0.299933251
F		-0.300553921		2.74586808		1.992856175
F		0.370729088		-0.360224967		2.052094414
F		-4.273215263		0.211993578		-0.584719773
F		0.754722775		1.247964691		-3.24089674
