12
-186.56215295
Al		-0.364382288		1.03310847		-1.825068609
Al		-0.457961886		1.072410376		1.296041839
Al		-3.015996477		0.459421039		-1.857797004
F		-3.530071248		0.315179381		-3.595401166
F		-1.387598934		-0.571804664		-1.842802256
F		-1.958690807		2.070687972		-1.893201231
F		-2.037582775		0.714950771		0.453178192
F		0.612851076		1.273391954		-0.300076642
F		-0.300518836		2.746055371		1.992911964
F		0.370837918		-0.360378903		2.05215671
F		-4.273117249		0.212012685		-0.584828608
F		0.754936946		1.248007274		-3.241090926
