12
-186.56215295
Al		-0.364430538		1.03308362		-1.825824754
Al		-0.459324711		1.072152901		1.297984709
Al		-3.015465987		0.459538304		-1.857659679
F		-3.529850193		0.315238306		-3.594816491
F		-1.389004174		-0.573111064		-1.842872326
F		-1.960509417		2.071294267		-1.893307781
F		-2.038032045		0.714847111		0.452833987
F		0.615071976		1.273858259		-0.300793597
F		-0.300343411		2.746991826		1.993190909
F		0.371382068		-0.361148583		2.05246819
F		-4.272627179		0.21210822		-0.585372783
F		0.756007801		1.248220189		-3.242061856
