12
-186.56215295
Al		-0.364469138		1.03306374		-1.82642967
Al		-0.460414971		1.071946921		1.299539005
Al		-3.015041595		0.459632116		-1.857549819
F		-3.529673349		0.315285446		-3.594348751
F		-1.390128366		-0.574156184		-1.842928382
F		-1.961964305		2.071779303		-1.893393021
F		-2.038391461		0.714764183		0.452558623
F		0.616848696		1.274231303		-0.301367161
F		-0.300203071		2.74774099		1.993414065
F		0.371817388		-0.361764327		2.052717374
F		-4.272235123		0.212184648		-0.585808123
F		0.756864485		1.248390521		-3.2428386
