12
-186.56215295
Al		-0.364488438		1.0330538		-1.826732128
Al		-0.460960101		1.071843931		1.300316153
Al		-3.014829399		0.459679022		-1.857494889
F		-3.529584927		0.315309016		-3.594114881
F		-1.390690462		-0.574678744		-1.84295641
F		-1.962691749		2.072021821		-1.893435641
F		-2.038571169		0.714722719		0.452420941
F		0.617737056		1.274417825		-0.301653943
F		-0.300132901		2.748115572		1.993525643
F		0.372035048		-0.362072199		2.052841966
F		-4.272039095		0.212222862		-0.586025793
F		0.757292827		1.248475687		-3.243226972
