12
-186.56215295
Al		-0.364527038		1.03303392		-1.827337044
Al		-0.462050361		1.071637951		1.301870449
Al		-3.014405007		0.459772834		-1.857385029
F		-3.529408083		0.315356156		-3.593647141
F		-1.391814654		-0.575723864		-1.843012466
F		-1.964146637		2.072506857		-1.893520881
F		-2.038930585		0.714639791		0.452145577
F		0.619513776		1.274790869		-0.302227507
F		-0.299992561		2.748864736		1.993748799
F		0.372470368		-0.362687943		2.05309115
F		-4.271647039		0.21229929		-0.586461133
F		0.758149511		1.248646019		-3.244003716
