12
-186.56215295
Al		-0.364536688		1.03302895		-1.827488273
Al		-0.462322926		1.071586456		1.302259023
Al		-3.014298909		0.459796287		-1.857357564
F		-3.529363872		0.315367941		-3.593530206
F		-1.392095702		-0.575985144		-1.84302648
F		-1.964510359		2.072628116		-1.893542191
F		-2.039020439		0.714619059		0.452076736
F		0.619957956		1.27488413		-0.302370898
F		-0.299957476		2.749052027		1.993804588
F		0.372579198		-0.362841879		2.053153446
F		-4.271549025		0.212318397		-0.586569968
F		0.758363682		1.248688602		-3.244197902
