12
-186.56215295
Al		-0.364546338		1.03302398		-1.827639502
Al		-0.462595491		1.071534961		1.302647597
Al		-3.014192811		0.45981974		-1.857330099
F		-3.529319661		0.315379726		-3.593413271
F		-1.39237675		-0.576246424		-1.843040494
F		-1.964874081		2.072749375		-1.893563501
F		-2.039110293		0.714598327		0.452007895
F		0.620402136		1.274977391		-0.302514289
F		-0.299922391		2.749239318		1.993860377
F		0.372688028		-0.362995815		2.053215742
F		-4.271451011		0.212337504		-0.586678803
F		0.758577853		1.248731185		-3.244392088
