12
-186.56215295
Al		-0.364083138		1.03326254		-1.82038051
Al		-0.449512371		1.074006721		1.283996045
Al		-3.019285515		0.458693996		-1.858648419
F		-3.531441789		0.314814046		-3.599026151
F		-1.378886446		-0.563704984		-1.842367822
F		-1.947415425		2.066928943		-1.892540621
F		-2.034797301		0.715593463		0.455312263
F		0.599081496		1.270500863		-0.295631521
F		-0.301606471		2.74024935		1.991182505
F		0.367464188		-0.355606887		2.050225534
F		-4.276155683		0.211420368		-0.581454723
F		0.748297645		1.246687201		-3.23507116
