12
-186.56215295
Al		-0.364613888		1.03298919		-1.828698105
Al		-0.464503446		1.071174496		1.305367615
Al		-3.013450125		0.459983911		-1.857137844
F		-3.529010184		0.315462221		-3.592594726
F		-1.394344086		-0.578075384		-1.843138592
F		-1.967420135		2.073598188		-1.893712671
F		-2.039739271		0.714453203		0.451526008
F		0.623511396		1.275630218		-0.303518026
F		-0.299676796		2.750550355		1.9942509
F		0.373449838		-0.364073367		2.053651814
F		-4.270764913		0.212471253		-0.587440648
F		0.76007705		1.249029266		-3.24575139
