12
-186.56215295
Al		-0.364633188		1.03297925		-1.829000563
Al		-0.465048576		1.071071506		1.306144763
Al		-3.013237929		0.460030817		-1.857082914
F		-3.528921762		0.315485791		-3.592360856
F		-1.394906182		-0.578597944		-1.84316662
F		-1.968147579		2.073840706		-1.893755291
F		-2.039918979		0.714411739		0.451388326
F		0.624399756		1.27581674		-0.303804808
F		-0.299606626		2.750924937		1.994362478
F		0.373667498		-0.364381239		2.053776406
F		-4.270568885		0.212509467		-0.587658318
F		0.760505392		1.249114432		-3.246139762
