12
-186.56215295
Al		-0.364642838		1.03297428		-1.829151792
Al		-0.465321141		1.071020011		1.306533337
Al		-3.013131831		0.46005427		-1.857055449
F		-3.528877551		0.315497576		-3.592243921
F		-1.39518723		-0.578859224		-1.843180634
F		-1.968511301		2.073961965		-1.893776601
F		-2.040008833		0.714391007		0.451319485
F		0.624843936		1.275910001		-0.303948199
F		-0.299571541		2.751112228		1.994418267
F		0.373776328		-0.364535175		2.053838702
F		-4.270470871		0.212528574		-0.587767153
F		0.760719563		1.249157015		-3.246333948
