12
-186.56215295
Al		-0.364092788		1.03325757		-1.820531739
Al		-0.449784936		1.073955226		1.284384619
Al		-3.019179417		0.458717449		-1.858620954
F		-3.531397578		0.314825831		-3.598909216
F		-1.379167494		-0.563966264		-1.842381836
F		-1.947779147		2.067050202		-1.892561931
F		-2.034887155		0.715572731		0.455243422
F		0.599525676		1.270594124		-0.295774912
F		-0.301571386		2.740436641		1.991238294
F		0.367573018		-0.355760823		2.05028783
F		-4.276057669		0.211439475		-0.581563558
F		0.748511816		1.246729784		-3.235265346
