12
-186.56215295
Al		-0.364700738		1.03294446		-1.830059166
Al		-0.466956531		1.070711041		1.308864781
Al		-3.012495243		0.460194988		-1.856890659
F		-3.528612285		0.315568286		-3.591542311
F		-1.396873518		-0.580426904		-1.843264718
F		-1.970693633		2.074689519		-1.893904461
F		-2.040547957		0.714266615		0.450906439
F		0.627509016		1.276469567		-0.304808545
F		-0.299361031		2.752235974		1.994753001
F		0.374429308		-0.365458791		2.054212478
F		-4.269882787		0.212643216		-0.588420163
F		0.762004589		1.249412513		-3.247499064
