12
-186.56215295
Al		-0.364720038		1.03293452		-1.830361624
Al		-0.467501661		1.070608051		1.309641929
Al		-3.012283047		0.460241894		-1.856835729
F		-3.528523863		0.315591856		-3.591308441
F		-1.397435614		-0.580949464		-1.843292746
F		-1.971421077		2.074932037		-1.893947081
F		-2.040727665		0.714225151		0.450768757
F		0.628397376		1.276656089		-0.305095327
F		-0.299290861		2.752610556		1.994864579
F		0.374646968		-0.365766663		2.05433707
F		-4.269686759		0.21268143		-0.588637833
F		0.762432931		1.249497679		-3.247887436
