12
-186.56215295
Al		-0.364777938		1.0329047		-1.831268998
Al		-0.469137051		1.070299081		1.311973373
Al		-3.011646459		0.460382612		-1.856670939
F		-3.528258597		0.315662566		-3.590606831
F		-1.399121902		-0.582517144		-1.84337683
F		-1.973603409		2.075659591		-1.894074941
F		-2.041266789		0.714100759		0.450355711
F		0.631062456		1.277215655		-0.305955673
F		-0.299080351		2.753734302		1.995199313
F		0.375299948		-0.366690279		2.054710846
F		-4.269098675		0.212796072		-0.589290843
F		0.763717957		1.249753177		-3.249052552
