12
-186.56215295
Al		-0.364797238		1.03289476		-1.831571456
Al		-0.469682181		1.070196091		1.312750521
Al		-3.011434263		0.460429518		-1.856616009
F		-3.528170175		0.315686136		-3.590372961
F		-1.399683998		-0.583039704		-1.843404858
F		-1.974330853		2.075902109		-1.894117561
F		-2.041446497		0.714059295		0.450218029
F		0.631950816		1.277402177		-0.306242455
F		-0.299010181		2.754108884		1.995310891
F		0.375517608		-0.366998151		2.054835438
F		-4.268902647		0.212834286		-0.589508513
F		0.764146299		1.249838343		-3.249440924
