12
-186.56215295
Al		-0.364806888		1.03288979		-1.831722685
Al		-0.469954746		1.070144596		1.313139095
Al		-3.011328165		0.460452971		-1.856588544
F		-3.528125964		0.315697921		-3.590256026
F		-1.399965046		-0.583300984		-1.843418872
F		-1.974694575		2.076023368		-1.894138871
F		-2.041536351		0.714038563		0.450149188
F		0.632394996		1.277495438		-0.306385846
F		-0.298975096		2.754296175		1.99536668
F		0.375626438		-0.367152087		2.054897734
F		-4.268804633		0.212853393		-0.589617348
F		0.76436047		1.249880926		-3.24963511
