12
-186.56215295
Al		-0.364864788		1.03285997		-1.832630059
Al		-0.471590136		1.069835626		1.315470539
Al		-3.010691577		0.460593689		-1.856423754
F		-3.527860698		0.315768631		-3.589554416
F		-1.401651334		-0.584868664		-1.843502956
F		-1.976876907		2.076750922		-1.894266731
F		-2.042075475		0.713914171		0.449736142
F		0.635060076		1.278055004		-0.307246192
F		-0.298764586		2.755419921		1.995701414
F		0.376279418		-0.368075703		2.05527151
F		-4.268216549		0.212968035		-0.590270358
F		0.765645496		1.250136424		-3.250800226
