12
-186.56215295
Al		-0.364884088		1.03285003		-1.832932517
Al		-0.472135266		1.069732636		1.316247687
Al		-3.010479381		0.460640595		-1.856368824
F		-3.527772276		0.315792201		-3.589320546
F		-1.40221343		-0.585391224		-1.843530984
F		-1.977604351		2.07699344		-1.894309351
F		-2.042255183		0.713872707		0.44959846
F		0.635948436		1.278241526		-0.307532974
F		-0.298694416		2.755794503		1.995812992
F		0.376497078		-0.368383575		2.055396102
F		-4.268020521		0.213006249		-0.590488028
F		0.766073838		1.25022159		-3.251188598
