12
-186.56215295
Al		-0.364893738		1.03284506		-1.833083746
Al		-0.472407831		1.069681141		1.316636261
Al		-3.010373283		0.460664048		-1.856341359
F		-3.527728065		0.315803986		-3.589203611
F		-1.402494478		-0.585652504		-1.843544998
F		-1.977968073		2.077114699		-1.894330661
F		-2.042345037		0.713851975		0.449529619
F		0.636392616		1.278334787		-0.307676365
F		-0.298659331		2.755981794		1.995868781
F		0.376605908		-0.368537511		2.055458398
F		-4.267922507		0.213025356		-0.590596863
F		0.766288009		1.250264173		-3.251382784
