12
-186.56215295
Al		-0.364941988		1.03282021		-1.833839891
Al		-0.473770656		1.069423666		1.318579131
Al		-3.009842793		0.460781313		-1.856204034
F		-3.52750701		0.315862911		-3.588618936
F		-1.403899718		-0.586958904		-1.843615068
F		-1.979786683		2.077720994		-1.894437211
F		-2.042794307		0.713748315		0.449185414
F		0.638613516		1.278801092		-0.30839332
F		-0.298483906		2.756918249		1.996147726
F		0.377150058		-0.369307191		2.055769878
F		-4.267432437		0.213120891		-0.591141038
F		0.767358864		1.250477088		-3.252353714
