12
Properties=species:S:1:pos:R:3:forces:R:3 energy=-186.34927987 pbc="F F F"
Al    -1.6655413609999998    2.23755752    -1.189795091    0.029857    0.012904    -0.004053
Al    -0.44953335499999997    -0.32483069400000003    -2.250029074    0.112729    0.017336    0.03083
Al    -2.229832176    -0.660622118    -0.518049937    -0.150246    -0.023635    -0.000562
F    -0.773794941    3.405518336    -0.076728457    0.014343    0.016192    0.017664
F    -2.930113847    2.918810593    -2.344481992    -0.035462    0.013859    -0.028838
F    -1.3502032800000001    -1.9451533269999999    -1.6874384610000002    -0.00062    -0.020137    -0.004709
F    -2.5670781619999996    1.1797458829999998    0.041925062    -0.012837    -0.009947    0.024831
F    -3.332905263    -1.5706209320000002    0.544501653    -0.003385    -0.008056    0.020514
F    0.750895698    -0.791114941    -3.505885704    0.021509    -0.00798    -0.038747
F    -0.254621225    1.6211420140000001    -2.251611431    0.009604    -0.002503    -0.00972
F    -2.385382557    0.21330455099999995    -2.315836628    -0.062214    -0.000517    0.010689
F    -0.329347868    -0.12332476100000003    -0.30761680799999996    0.076719    0.012483    -0.017898
