      12
SCF Done            -186.34927987
Al           -1.695122361         2.560362520        -1.234635091
Al           -0.479114355        -0.002025694        -2.294869074
Al           -2.259413176        -0.337817118        -0.562889937
F            -0.798618941         3.676410336        -0.114357457
F            -2.954937847         3.189702593        -2.382110992
F            -1.375027280        -1.674261327        -1.725067461
F            -2.591902162         1.450637883         0.004296062
F            -3.357729263        -1.299728932         0.506872653
F             0.726071698        -0.520222941        -3.543514704
F            -0.279445225         1.892034014        -2.289240431
F            -2.410206557         0.484196551        -2.353465628
F            -0.354171868         0.147567239        -0.345245808
