12
-186.56215295
Al		-0.364868166		1.037766328		-1.819447136
Al		-0.447765221		1.072659835		1.281797513
Al		-3.019241127		0.455997694		-1.858970073
F		-3.531314223		0.314231976		-3.599941809
F		-1.374332686		-0.560620744		-1.844519674
F		-1.948280149		2.066522941		-1.890284841
F		-2.033597313		0.712087103		0.455720717
F		0.595616992		1.273415201		-0.294647815
F		-0.305256069		2.736930596		1.993577707
F		0.370334072		-0.355471639		2.047445006
F		-4.275249159		0.204297486		-0.580966449
F		0.745419371		1.254940583		-3.233863628
