12
-186.56215295
Al		-0.364920849		1.038045951		-1.819445511
Al		-0.447758236		1.072556344		1.28180582
Al		-3.019198566		0.45583797		-1.858979877
F		-3.531289671		0.314200016		-3.599955187
F		-1.374153469		-0.560525959		-1.84465942
F		-1.94847059		2.066543038		-1.890151846
F		-2.033556009		0.711860181		0.45572043
F		0.595567028		1.27363232		-0.294640105
F		-0.305471012		2.736793408		1.993748328
F		0.370554251		-0.355520912		2.047294584
F		-4.275155746		0.203859471		-0.580976745
F		0.745319793		1.255472388		-3.233860977
