12
-186.56215295
Al		-0.365131581		1.039164443		-1.819439011
Al		-0.447730296		1.07214238		1.281839048
Al		-3.019028322		0.455199074		-1.859019093
F		-3.531191463		0.314072176		-3.600008699
F		-1.373436601		-0.560146819		-1.845218404
F		-1.949232354		2.066623426		-1.889619866
F		-2.033390793		0.710952493		0.455719282
F		0.595367172		1.274500796		-0.294609265
F		-0.306330784		2.736244656		1.994430812
F		0.371434967		-0.355718004		2.046692896
F		-4.274782094		0.202107411		-0.581017929
F		0.744921481		1.257599608		-3.233850373
