12
-186.56215295
Al		-0.365184264		1.039444066		-1.819437386
Al		-0.447723311		1.072038889		1.281847355
Al		-3.018985761		0.45503935		-1.859028897
F		-3.531166911		0.314040216		-3.600022077
F		-1.373257384		-0.560052034		-1.84535815
F		-1.949422795		2.066643523		-1.889486871
F		-2.033349489		0.710725571		0.455718995
F		0.595317208		1.274717915		-0.294601555
F		-0.306545727		2.736107468		1.994601433
F		0.371655146		-0.355767277		2.046542474
F		-4.274688681		0.201669396		-0.581028225
F		0.744821903		1.258131413		-3.233847722
