12
-186.56215295
Al		-0.36528963		1.040003312		-1.819434136
Al		-0.447709341		1.071831907		1.281863969
Al		-3.018900639		0.454719902		-1.859048505
F		-3.531117807		0.313976296		-3.600048833
F		-1.37289895		-0.559862464		-1.845637642
F		-1.949803677		2.066683717		-1.889220881
F		-2.033266881		0.710271727		0.455718421
F		0.59521728		1.275152153		-0.294586135
F		-0.306975613		2.735833092		1.994942675
F		0.372095504		-0.355865823		2.04624163
F		-4.274501855		0.200793366		-0.581048817
F		0.744622747		1.259195023		-3.23384242
