12
-186.56215295
Al		-0.365711094		1.042240296		-1.819421136
Al		-0.447653461		1.071003979		1.281930425
Al		-3.018560151		0.45344211		-1.859126937
F		-3.530921391		0.313720616		-3.600155857
F		-1.371465214		-0.559104184		-1.84675561
F		-1.951327205		2.066844493		-1.888156921
F		-2.032936449		0.708456351		0.455716125
F		0.594817568		1.276889105		-0.294524455
F		-0.308695157		2.734735588		1.996307643
F		0.373856936		-0.356260007		2.045038254
F		-4.273754551		0.197289246		-0.581131185
F		0.743826123		1.263449463		-3.233821212
