12
-186.56215295
Al		-0.365763777		1.042519919		-1.819419511
Al		-0.447646476		1.070900488		1.281938732
Al		-3.01851759		0.453282386		-1.859136741
F		-3.530896839		0.313688656		-3.600169235
F		-1.371285997		-0.559009399		-1.846895356
F		-1.951517646		2.06686459		-1.888023926
F		-2.032895145		0.708229429		0.455715838
F		0.594767604		1.277106224		-0.294516745
F		-0.3089101		2.7345984		1.996478264
F		0.374077115		-0.35630928		2.044887832
F		-4.273661138		0.196851231		-0.581141481
F		0.743726545		1.263981268		-3.233818561
