12
-186.56215295
Al		-0.366079875		1.044197657		-1.819409761
Al		-0.447604566		1.070279542		1.281988574
Al		-3.018262224		0.452324042		-1.859195565
F		-3.530749527		0.313496896		-3.600249503
F		-1.370210695		-0.558440689		-1.847733832
F		-1.952660292		2.066985172		-1.887225956
F		-2.032647321		0.706867897		0.455714116
F		0.59446782		1.278408938		-0.294470485
F		-0.310199758		2.733775272		1.99750199
F		0.375398189		-0.356604918		2.0439853
F		-4.27310066		0.194223141		-0.581203257
F		0.743129077		1.267172098		-3.233802655
