12
-186.56215295
Al		-0.366554022		1.046714264		-1.819395136
Al		-0.447541701		1.069348123		1.282063337
Al		-3.017879175		0.450886526		-1.859283801
F		-3.530528559		0.313209256		-3.600369905
F		-1.368597742		-0.557587624		-1.848991546
F		-1.954374261		2.067166045		-1.886029001
F		-2.032275585		0.704825599		0.455711533
F		0.594018144		1.280363009		-0.294401095
F		-0.312134245		2.73254058		1.999037579
F		0.3773798		-0.357048375		2.042631502
F		-4.272259943		0.190281006		-0.581295921
F		0.742232875		1.271958343		-3.233778796
