12
-186.56215295
Al		-0.366764754		1.047832756		-1.819388636
Al		-0.447513761		1.068934159		1.282096565
Al		-3.017708931		0.45024763		-1.859323017
F		-3.530430351		0.313081416		-3.600423417
F		-1.367880874		-0.557208484		-1.84955053
F		-1.955136025		2.067246433		-1.885497021
F		-2.032110369		0.703917911		0.455710385
F		0.593818288		1.281231485		-0.294370255
F		-0.312994017		2.731991828		1.999720063
F		0.378260516		-0.357245467		2.042029814
F		-4.271886291		0.188528946		-0.581337105
F		0.741834563		1.274085563		-3.233768192
