12
-186.56215295
Al		-0.367028169		1.049230871		-1.819380511
Al		-0.447478836		1.068416704		1.2821381
Al		-3.017496126		0.44944901		-1.859372037
F		-3.530307591		0.312921616		-3.600490307
F		-1.366984789		-0.556734559		-1.85024926
F		-1.95608823		2.067346918		-1.884832046
F		-2.031903849		0.702783301		0.45570895
F		0.593568468		1.28231708		-0.294331705
F		-0.314068732		2.731305888		2.000573168
F		0.379361411		-0.357491832		2.041277704
F		-4.271419226		0.186338871		-0.581388585
F		0.741336673		1.276744588		-3.233754937
