12
-186.56215295
Al		-0.367080852		1.049510494		-1.819378886
Al		-0.447471851		1.068313213		1.282146407
Al		-3.017453565		0.449289286		-1.859381841
F		-3.530283039		0.312889656		-3.600503685
F		-1.366805572		-0.556639774		-1.850389006
F		-1.956278671		2.067367015		-1.884699051
F		-2.031862545		0.702556379		0.455708663
F		0.593518504		1.282534199		-0.294323995
F		-0.314283675		2.7311687		2.000743789
F		0.37958159		-0.357541105		2.041127282
F		-4.271325813		0.185900856		-0.581398881
F		0.741237095		1.277276393		-3.233752286
