12
-186.56215295
Al		-0.367186218		1.05006974		-1.819375636
Al		-0.447457881		1.068106231		1.282163021
Al		-3.017368443		0.448969838		-1.859401449
F		-3.530233935		0.312825736		-3.600530441
F		-1.366447138		-0.556450204		-1.850668498
F		-1.956659553		2.067407209		-1.884433061
F		-2.031779937		0.702102535		0.455708089
F		0.593418576		1.282968437		-0.294308575
F		-0.314713561		2.730894324		2.001085031
F		0.380021948		-0.357639651		2.040826438
F		-4.271138987		0.185024826		-0.581419473
F		0.741037939		1.278340003		-3.233746984
