12
-186.56215295
Al		-0.367238901		1.050349363		-1.819374011
Al		-0.447450896		1.06800274		1.282171328
Al		-3.017325882		0.448810114		-1.859411253
F		-3.530209383		0.312793776		-3.600543819
F		-1.366267921		-0.556355419		-1.850808244
F		-1.956849994		2.067427306		-1.884300066
F		-2.031738633		0.701875613		0.455707802
F		0.593368612		1.283185556		-0.294300865
F		-0.314928504		2.730757136		2.001255652
F		0.380242127		-0.357688924		2.040676016
F		-4.271045574		0.184586811		-0.581429769
F		0.740938361		1.278871808		-3.233744333
