12
-186.56215295
Al		-0.36739695		1.051188232		-1.819369136
Al		-0.447429941		1.067692267		1.282196249
Al		-3.017198199		0.448330942		-1.859440665
F		-3.530135727		0.312697896		-3.600583953
F		-1.36573027		-0.556071064		-1.851227482
F		-1.957421317		2.067487597		-1.883901081
F		-2.031614721		0.701194847		0.455706941
F		0.59321872		1.283836913		-0.294277735
F		-0.315573333		2.730345572		2.001767515
F		0.380902664		-0.357836743		2.04022475
F		-4.270765335		0.183272766		-0.581460657
F		0.740639627		1.280467223		-3.23373638
