12
-186.56215295
Al		-0.367449633		1.051467855		-1.819367511
Al		-0.447422956		1.067588776		1.282204556
Al		-3.017155638		0.448171218		-1.859450469
F		-3.530111175		0.312665936		-3.600597331
F		-1.365551053		-0.555976279		-1.851367228
F		-1.957611758		2.067507694		-1.883768086
F		-2.031573417		0.700967925		0.455706654
F		0.593168756		1.284054032		-0.294270025
F		-0.315788276		2.730208384		2.001938136
F		0.381122843		-0.357886016		2.040074328
F		-4.270671922		0.182834751		-0.581470953
F		0.740540049		1.280999028		-3.233733729
