12
-186.56215295
Al		-0.367818414		1.053425216		-1.819356136
Al		-0.447374061		1.066864339		1.282262705
Al		-3.016857711		0.44705315		-1.859519097
F		-3.529939311		0.312442216		-3.600690977
F		-1.364296534		-0.555312784		-1.85234545
F		-1.958944845		2.067648373		-1.882837121
F		-2.031284289		0.699379471		0.455704645
F		0.592819008		1.285573865		-0.294216055
F		-0.317292877		2.729248068		2.003132483
F		0.382664096		-0.358230927		2.039021374
F		-4.270018031		0.179768646		-0.581543025
F		0.739843003		1.284721663		-3.233715172
