12
-186.56215295
Al		-0.368081829		1.054823331		-1.819348011
Al		-0.447339136		1.066346884		1.28230424
Al		-3.016644906		0.44625453		-1.859568117
F		-3.529816551		0.312282416		-3.600757867
F		-1.363400449		-0.554838859		-1.85304418
F		-1.95989705		2.067748858		-1.882172146
F		-2.031077769		0.698244861		0.45570321
F		0.592569188		1.28665946		-0.294177505
F		-0.318367592		2.728562128		2.003985588
F		0.383764991		-0.358477292		2.038269264
F		-4.269550966		0.177578571		-0.581594505
F		0.739345113		1.287380688		-3.233701917
