12
-186.56215295
Al		-0.368134512		1.055102954		-1.819346386
Al		-0.447332151		1.066243393		1.282312547
Al		-3.016602345		0.446094806		-1.859577921
F		-3.529791999		0.312250456		-3.600771245
F		-1.363221232		-0.554744074		-1.853183926
F		-1.960087491		2.067768955		-1.882039151
F		-2.031036465		0.698017939		0.455702923
F		0.592519224		1.286876579		-0.294169795
F		-0.318582535		2.72842494		2.004156209
F		0.38398517		-0.358526565		2.038118842
F		-4.269457553		0.177140556		-0.581604801
F		0.739245535		1.287912493		-3.233699266
