12
-186.56215295
Al		-0.36845061		1.056780692		-1.819336636
Al		-0.447290241		1.065622447		1.282362389
Al		-3.016346979		0.445136462		-1.859636745
F		-3.529644687		0.312058696		-3.600851513
F		-1.36214593		-0.554175364		-1.854022402
F		-1.961230137		2.067889537		-1.881241181
F		-2.030788641		0.696656407		0.455701201
F		0.59221944		1.288179293		-0.294123535
F		-0.319872193		2.727601812		2.005179935
F		0.385306244		-0.358822203		2.03721631
F		-4.268897075		0.174512466		-0.581666577
F		0.738648067		1.291103323		-3.23368336
