12
-186.56215295
Al		-0.368503293		1.057060315		-1.819335011
Al		-0.447283256		1.065518956		1.282370696
Al		-3.016304418		0.444976738		-1.859646549
F		-3.529620135		0.312026736		-3.600864891
F		-1.361966713		-0.554080579		-1.854162148
F		-1.961420578		2.067909634		-1.881108186
F		-2.030747337		0.696429485		0.455700914
F		0.592169476		1.288396412		-0.294115825
F		-0.320087136		2.727464624		2.005350556
F		0.385526423		-0.358871476		2.037065888
F		-4.268803662		0.174074451		-0.581676873
F		0.738548489		1.291635128		-3.233680709
