12
-186.56215295
Al		-0.368608659		1.057619561		-1.819331761
Al		-0.447269286		1.065311974		1.28238731
Al		-3.016219296		0.44465729		-1.859666157
F		-3.529571031		0.311962816		-3.600891647
F		-1.361608279		-0.553891009		-1.85444164
F		-1.96180146		2.067949828		-1.880842196
F		-2.030664729		0.695975641		0.45570034
F		0.592069548		1.28883065		-0.294100405
F		-0.320517022		2.727190248		2.005691798
F		0.385966781		-0.358970022		2.036765044
F		-4.268616836		0.173198421		-0.581697465
F		0.738349333		1.292698738		-3.233675407
