12
-186.56215295
Al		-0.368661342		1.057899184		-1.819330136
Al		-0.447262301		1.065208483		1.282395617
Al		-3.016176735		0.444497566		-1.859675961
F		-3.529546479		0.311930856		-3.600905025
F		-1.361429062		-0.553796224		-1.854581386
F		-1.961991901		2.067969925		-1.880709201
F		-2.030623425		0.695748719		0.455700053
F		0.592019584		1.289047769		-0.294092695
F		-0.320731965		2.72705306		2.005862419
F		0.38618696		-0.359019295		2.036614622
F		-4.268523423		0.172760406		-0.581707761
F		0.738249755		1.293230543		-3.233672756
