12
-186.56215295
Al		-0.368714025		1.058178807		-1.819328511
Al		-0.447255316		1.065104992		1.282403924
Al		-3.016134174		0.444337842		-1.859685765
F		-3.529521927		0.311898896		-3.600918403
F		-1.361249845		-0.553701439		-1.854721132
F		-1.962182342		2.067990022		-1.880576206
F		-2.030582121		0.695521797		0.455699766
F		0.59196962		1.289264888		-0.294084985
F		-0.320946908		2.726915872		2.00603304
F		0.386407139		-0.359068568		2.0364642
F		-4.26843001		0.172322391		-0.581718057
F		0.738150177		1.293762348		-3.233670105
