12
-186.56215295
Al		-0.369030123		1.059856545		-1.819318761
Al		-0.447213406		1.064484046		1.282453766
Al		-3.015878808		0.443379498		-1.859744589
F		-3.529374615		0.311707136		-3.600998671
F		-1.360174543		-0.553132729		-1.855559608
F		-1.963324988		2.068110604		-1.879778236
F		-2.030334297		0.694160265		0.455698044
F		0.591669836		1.290567602		-0.294038725
F		-0.322236566		2.726092744		2.007056766
F		0.387728213		-0.359364206		2.035561668
F		-4.267869532		0.169694301		-0.581779833
F		0.737552709		1.296953178		-3.233654199
