12
-186.56215295
Al		-0.369188172		1.060695414		-1.819313886
Al		-0.447192451		1.064173573		1.282478687
Al		-3.015751125		0.442900326		-1.859774001
F		-3.529300959		0.311611256		-3.601038805
F		-1.359636892		-0.552848374		-1.855978846
F		-1.963896311		2.068170895		-1.879379251
F		-2.030210385		0.693479499		0.455697183
F		0.591519944		1.291218959		-0.294015595
F		-0.322881395		2.72568118		2.007568629
F		0.38838875		-0.359512025		2.035110402
F		-4.267589293		0.168380256		-0.581810721
F		0.737253975		1.298548593		-3.233646246
