12
-186.56215295
Al		-0.363498408		1.03049613		-1.819489386
Al		-0.447946831		1.075350601		1.281581531
Al		-3.020347713		0.460150518		-1.858715169
F		-3.531952575		0.315062936		-3.599593981
F		-1.378992328		-0.563085154		-1.840886278
F		-1.943328683		2.066000419		-1.893742711
F		-2.034671217		0.717987075		0.455728179
F		0.596916056		1.267770107		-0.294848275
F		-0.299667551		2.740497484		1.989141561
F		0.364609418		-0.354190541		2.051355978
F		-4.277677897		0.215685876		-0.580698753
F		0.748008399		1.241113653		-3.233932554
