12
-186.56215295
Al		-0.363340359		1.029657261		-1.819494261
Al		-0.447967786		1.075661074		1.28155661
Al		-3.020475396		0.46062969		-1.858685757
F		-3.532026231		0.315158816		-3.599553847
F		-1.379529979		-0.563369509		-1.84046704
F		-1.94275736		2.065940128		-1.894141696
F		-2.034795129		0.718667841		0.45572904
F		0.597065948		1.26711875		-0.294871405
F		-0.299022722		2.740909048		1.988629698
F		0.363948881		-0.354042722		2.051807244
F		-4.277958136		0.216999921		-0.580667865
F		0.748307133		1.239518238		-3.233940507
