12
-186.56215295
Al		-0.363287676		1.029377638		-1.819495886
Al		-0.447974771		1.075764565		1.281548303
Al		-3.020517957		0.460789414		-1.858675953
F		-3.532050783		0.315190776		-3.599540469
F		-1.379709196		-0.563464294		-1.840327294
F		-1.942566919		2.065920031		-1.894274691
F		-2.034836433		0.718894763		0.455729327
F		0.597115912		1.266901631		-0.294879115
F		-0.298807779		2.741046236		1.988459077
F		0.363728702		-0.353993449		2.051957666
F		-4.278051549		0.217437936		-0.580657569
F		0.748406711		1.238986433		-3.233943158
