12
-186.56215295
Al		-0.363234993		1.029098015		-1.819497511
Al		-0.447981756		1.075868056		1.281539996
Al		-3.020560518		0.460949138		-1.858666149
F		-3.532075335		0.315222736		-3.599527091
F		-1.379888413		-0.563559079		-1.840187548
F		-1.942376478		2.065899934		-1.894407686
F		-2.034877737		0.719121685		0.455729614
F		0.597165876		1.266684512		-0.294886825
F		-0.298592836		2.741183424		1.988288456
F		0.363508523		-0.353944176		2.052108088
F		-4.278144962		0.217875951		-0.580647273
F		0.748506289		1.238454628		-3.233945809
