12
-186.56215295
Al		-0.362971578		1.0276999		-1.819505636
Al		-0.448016681		1.076385511		1.281498461
Al		-3.020773323		0.461747758		-1.858617129
F		-3.532198095		0.315382536		-3.599460201
F		-1.380784498		-0.564033004		-1.839488818
F		-1.941424273		2.065799449		-1.895072661
F		-2.035084257		0.720256295		0.455731049
F		0.597415696		1.265598917		-0.294925375
F		-0.297518121		2.741869364		1.987435351
F		0.362407628		-0.353697811		2.052860198
F		-4.278612027		0.220066026		-0.580595793
F		0.749004179		1.235795603		-3.233959064
