12
-186.56215295
Al		-0.362760846		1.026581408		-1.819512136
Al		-0.448044621		1.076799475		1.281465233
Al		-3.020943567		0.462386654		-1.858577913
F		-3.532296303		0.315510376		-3.599406689
F		-1.381501366		-0.564412144		-1.838929834
F		-1.940662509		2.065719061		-1.895604641
F		-2.035249473		0.721163983		0.455732197
F		0.597615552		1.264730441		-0.294956215
F		-0.296658349		2.742418116		1.986752867
F		0.361526912		-0.353500719		2.053461886
F		-4.278985679		0.221818086		-0.580554609
F		0.749402491		1.233668383		-3.233969668
