12
-186.56215295
Al		-0.362708163		1.026301785		-1.819513761
Al		-0.448051606		1.076902966		1.281456926
Al		-3.020986128		0.462546378		-1.858568109
F		-3.532320855		0.315542336		-3.599393311
F		-1.381680583		-0.564506929		-1.838790088
F		-1.940472068		2.065698964		-1.895737636
F		-2.035290777		0.721390905		0.455732484
F		0.597665516		1.264513322		-0.294963925
F		-0.296443406		2.742555304		1.986582246
F		0.361306733		-0.353451446		2.053612308
F		-4.279079092		0.222256101		-0.580544313
F		0.749502069		1.233136578		-3.233972319
