12
-186.56215295
Al		-0.362444748		1.02490367		-1.819521886
Al		-0.448086531		1.077420421		1.281415391
Al		-3.021198933		0.463344998		-1.858519089
F		-3.532443615		0.315702136		-3.599326421
F		-1.382576668		-0.564980854		-1.838091358
F		-1.939519863		2.065598479		-1.896402611
F		-2.035497297		0.722525515		0.455733919
F		0.597915336		1.263427727		-0.295002475
F		-0.295368691		2.743241244		1.985729141
F		0.360205838		-0.353205081		2.054364418
F		-4.279546157		0.224446176		-0.580492833
F		0.749999959		1.230477553		-3.233985574
