12
-186.56215295
Al		-0.362181333		1.023505555		-1.819530011
Al		-0.448121456		1.077937876		1.281373856
Al		-3.021411738		0.464143618		-1.858470069
F		-3.532566375		0.315861936		-3.599259531
F		-1.383472753		-0.565454779		-1.837392628
F		-1.938567658		2.065497994		-1.897067586
F		-2.035703817		0.723660125		0.455735354
F		0.598165156		1.262342132		-0.295041025
F		-0.294293976		2.743927184		1.984876036
F		0.359104943		-0.352958716		2.055116528
F		-4.280013222		0.226636251		-0.580441353
F		0.750497849		1.227818528		-3.233998829
