12
-186.56215295
Al		-0.363814506		1.032173868		-1.819479636
Al		-0.447904921		1.074729655		1.281631373
Al		-3.020092347		0.459192174		-1.858773993
F		-3.531805263		0.314871176		-3.599674249
F		-1.377917026		-0.562516444		-1.841724754
F		-1.944471329		2.066121001		-1.892944741
F		-2.034423393		0.716625543		0.455726457
F		0.596616272		1.269072821		-0.294802015
F		-0.300957209		2.739674356		1.990165287
F		0.365930492		-0.354486179		2.050453446
F		-4.277117419		0.213057786		-0.580760529
F		0.747410931		1.244304483		-3.233916648
