12
-186.56215295
Al		-0.361865235		1.021827817		-1.819539761
Al		-0.448163366		1.078558822		1.281324014
Al		-3.021667104		0.465101962		-1.858411245
F		-3.532713687		0.316053696		-3.599179263
F		-1.384548055		-0.566023489		-1.836554152
F		-1.937425012		2.065377412		-1.897865556
F		-2.035951641		0.725021657		0.455737076
F		0.59846494		1.261039418		-0.295087285
F		-0.293004318		2.744750312		1.98385231
F		0.357783869		-0.352663078		2.05601906
F		-4.2805737		0.229264341		-0.580379577
F		0.751095317		1.224627698		-3.234014735
