12
-186.56215295
Al		-0.361812552		1.021548194		-1.819541386
Al		-0.448170351		1.078662313		1.281315707
Al		-3.021709665		0.465261686		-1.858401441
F		-3.532738239		0.316085656		-3.599165885
F		-1.384727272		-0.566118274		-1.836414406
F		-1.937234571		2.065357315		-1.897998551
F		-2.035992945		0.725248579		0.455737363
F		0.598514904		1.260822299		-0.295094995
F		-0.292789375		2.7448875		1.983681689
F		0.35756369		-0.352613805		2.056169482
F		-4.280667113		0.229702356		-0.580369281
F		0.751194895		1.224095893		-3.234017386
