12
-186.56215295
Al		-0.363761823		1.031894245		-1.819481261
Al		-0.447911906		1.074833146		1.281623066
Al		-3.020134908		0.459351898		-1.858764189
F		-3.531829815		0.314903136		-3.599660871
F		-1.378096243		-0.562611229		-1.841585008
F		-1.944280888		2.066100904		-1.893077736
F		-2.034464697		0.716852465		0.455726744
F		0.596666236		1.268855702		-0.294809725
F		-0.300742266		2.739811544		1.989994666
F		0.365710313		-0.354436906		2.050603868
F		-4.277210832		0.213495801		-0.580750233
F		0.747510509		1.243772678		-3.233919299
