12
-186.56215295
Al		-0.361233039		1.018472341		-1.819559261
Al		-0.448247186		1.079800714		1.28122433
Al		-3.022177836		0.46701865		-1.858293597
F		-3.533008311		0.316437216		-3.599018727
F		-1.386698659		-0.567160909		-1.8348772
F		-1.93513972		2.065136248		-1.899461496
F		-2.036447289		0.727744721		0.45574052
F		0.599064508		1.25843399		-0.295179805
F		-0.290425002		2.746396568		1.981804858
F		0.355141721		-0.352071802		2.057824124
F		-4.281694656		0.234520521		-0.580256025
F		0.752290253		1.218246038		-3.234046547
