12
-186.56215295
Al		-0.36107499		1.017633472		-1.819564136
Al		-0.448268141		1.080111187		1.281199409
Al		-3.022305519		0.467497822		-1.858264185
F		-3.533081967		0.316533096		-3.598978593
F		-1.38723631		-0.567445264		-1.834457962
F		-1.934568397		2.065075957		-1.899860481
F		-2.036571201		0.728425487		0.455741381
F		0.5992144		1.257782633		-0.295202935
F		-0.289780173		2.746808132		1.981292995
F		0.354481184		-0.351923983		2.05827539
F		-4.281974895		0.235834566		-0.580225137
F		0.752588987		1.216650623		-3.2340545
