12
-186.56215295
Al		-0.360442794		1.014277996		-1.819583636
Al		-0.448351961		1.081353079		1.281099725
Al		-3.022816251		0.46941451		-1.858146537
F		-3.533376591		0.316916616		-3.598818057
F		-1.389386914		-0.568582684		-1.83278101
F		-1.932283105		2.064834793		-1.901456421
F		-2.037066849		0.731148551		0.455744825
F		0.599813968		1.255177205		-0.295295455
F		-0.287200857		2.748454388		1.979245543
F		0.351839036		-0.351332707		2.060080454
F		-4.283095851		0.241090746		-0.580101585
F		0.753783923		1.210268963		-3.234086312
