12
-186.56215295
Al		-0.363656457		1.031334999		-1.819484511
Al		-0.447925876		1.075040128		1.281606452
Al		-3.02022003		0.459671346		-1.858744581
F		-3.531878919		0.314967056		-3.599634115
F		-1.378454677		-0.562800799		-1.841305516
F		-1.943900006		2.06606071		-1.893343726
F		-2.034547305		0.717306309		0.455727318
F		0.596766164		1.268421464		-0.294825145
F		-0.30031238		2.74008592		1.989653424
F		0.365269955		-0.35433836		2.050904712
F		-4.277397658		0.214371831		-0.580729641
F		0.747709665		1.242709068		-3.233924601
