12
-186.56215295
Al		-0.360337428		1.01371875		-1.819586886
Al		-0.448365931		1.081560061		1.281083111
Al		-3.022901373		0.469733958		-1.858126929
F		-3.533425695		0.316980536		-3.598791301
F		-1.389745348		-0.568772254		-1.832501518
F		-1.931902223		2.064794599		-1.901722411
F		-2.037149457		0.731602395		0.455745399
F		0.599913896		1.254742967		-0.295310875
F		-0.286770971		2.748728764		1.978904301
F		0.351398678		-0.351234161		2.060381298
F		-4.283282677		0.241966776		-0.580080993
F		0.753983079		1.209205353		-3.234091614
