12
-186.56215295
Al		-0.359968647		1.011761389		-1.819598261
Al		-0.448414826		1.082284498		1.281024962
Al		-3.0231993		0.470852026		-1.858058301
F		-3.533597559		0.317204256		-3.598697655
F		-1.390999867		-0.569435749		-1.831523296
F		-1.930569136		2.06465392		-1.902653376
F		-2.037438585		0.733190849		0.455747408
F		0.600263644		1.253223134		-0.295364845
F		-0.28526637		2.74968908		1.977709954
F		0.349857425		-0.35088925		2.061434252
F		-4.283936568		0.245032881		-0.580008921
F		0.754680125		1.205482718		-3.234110171
