12
-186.56215295
Al		-0.359705232		1.010363274		-1.819606386
Al		-0.448449751		1.082801953		1.280983427
Al		-3.023412105		0.471650646		-1.858009281
F		-3.533720319		0.317364056		-3.598630765
F		-1.391895952		-0.569909674		-1.830824566
F		-1.929616931		2.064553435		-1.903318351
F		-2.037645105		0.734325459		0.455748843
F		0.600513464		1.252137539		-0.295403395
F		-0.284191655		2.75037502		1.976856849
F		0.34875653		-0.350642885		2.062186362
F		-4.284403633		0.247222956		-0.579957441
F		0.755178015		1.202823693		-3.234123426
