12
-186.56215295
Al		-0.359599866		1.009804028		-1.819609636
Al		-0.448463721		1.083008935		1.280966813
Al		-3.023497227		0.471970094		-1.857989673
F		-3.533769423		0.317427976		-3.598604009
F		-1.392254386		-0.570099244		-1.830545074
F		-1.929236049		2.064513241		-1.903584341
F		-2.037727713		0.734779303		0.455749417
F		0.600613392		1.251703301		-0.295418815
F		-0.283761769		2.750649396		1.976515607
F		0.348316172		-0.350544339		2.062487206
F		-4.284590459		0.248098986		-0.579936849
F		0.755377171		1.201760083		-3.234128728
