12
-186.56215295
Al		-0.359389134		1.008685536		-1.819616136
Al		-0.448491661		1.083422899		1.280933585
Al		-3.023667471		0.47260899		-1.857950457
F		-3.533867631		0.317555816		-3.598550497
F		-1.392971254		-0.570478384		-1.82998609
F		-1.928474285		2.064432853		-1.904116321
F		-2.037892929		0.735686991		0.455750565
F		0.600813248		1.250834825		-0.295449655
F		-0.282901997		2.751198148		1.975833123
F		0.347435456		-0.350347247		2.063088894
F		-4.284964111		0.249851046		-0.579895665
F		0.755775483		1.199632863		-3.234139332
