12
-186.56215295
Al		-0.363551091		1.030775753		-1.819487761
Al		-0.447939846		1.07524711		1.281589838
Al		-3.020305152		0.459990794		-1.858724973
F		-3.531928023		0.315030976		-3.599607359
F		-1.378813111		-0.562990369		-1.841026024
F		-1.943519124		2.066020516		-1.893609716
F		-2.034629913		0.717760153		0.455727892
F		0.596866092		1.267987226		-0.294840565
F		-0.299882494		2.740360296		1.989312182
F		0.364829597		-0.354239814		2.051205556
F		-4.277584484		0.215247861		-0.580709049
F		0.747908821		1.241645458		-3.233929903
