12
-186.56215295
Al		-0.359231085		1.007846667		-1.819621011
Al		-0.448512616		1.083733372		1.280908664
Al		-3.023795154		0.473088162		-1.857921045
F		-3.533941287		0.317651696		-3.598510363
F		-1.393508905		-0.570762739		-1.829566852
F		-1.927902962		2.064372562		-1.904515306
F		-2.038016841		0.736367757		0.455751426
F		0.60096314		1.250183468		-0.295472785
F		-0.282257168		2.751609712		1.97532126
F		0.346774919		-0.350199428		2.06354016
F		-4.28524435		0.251165091		-0.579864777
F		0.756074217		1.198037448		-3.234147285
