12
-186.56215295
Al		-0.359125719		1.007287421		-1.819624261
Al		-0.448526586		1.083940354		1.28089205
Al		-3.023880276		0.47340761		-1.857901437
F		-3.533990391		0.317715616		-3.598483607
F		-1.393867339		-0.570952309		-1.82928736
F		-1.92752208		2.064332368		-1.904781296
F		-2.038099449		0.736821601		0.455752
F		0.601063068		1.24974923		-0.295488205
F		-0.281827282		2.751884088		1.974980018
F		0.346334561		-0.350100882		2.063841004
F		-4.285431176		0.252041121		-0.579844185
F		0.756273373		1.196973838		-3.234152587
