12
-186.56215295
Al		-0.358862304		1.005889306		-1.819632386
Al		-0.448561511		1.084457809		1.280850515
Al		-3.024093081		0.47420623		-1.857852417
F		-3.534113151		0.317875416		-3.598416717
F		-1.394763424		-0.571426234		-1.82858863
F		-1.926569875		2.064231883		-1.905446271
F		-2.038305969		0.737956211		0.455753435
F		0.601312888		1.248663635		-0.295526755
F		-0.280752567		2.752570028		1.974126913
F		0.345233666		-0.349854517		2.064593114
F		-4.285898241		0.254231196		-0.579792705
F		0.756771263		1.194314813		-3.234165842
