12
Properties=species:S:1:pos:R:3:forces:R:3 energy=-186.34392138 pbc="F F F"
Al    -1.387485761    2.67094192    -1.288745291    0.05858    0.031177    0.005306
Al    -0.140326355    0.106203706    -2.3109938740000002    0.247778    0.040992    -0.008174
Al    -1.994401976    -0.226973918    -0.645764337    -0.312782    -0.050473    0.054043
F    -0.5710005410000001    3.762438136    -0.125664657    0.040076    0.046356    0.052481
F    -2.658350247    3.290878993    -2.469362592    -0.090454    0.038221    -0.082805
F    -1.1184484799999999    -1.581533527    -1.770930461    -0.001562    -0.055818    -0.013526
F    -2.380770962    1.543525083    -0.071276938    -0.035882    -0.02537    0.058298
F    -3.1762842630000003    -1.205257132    0.40025025299999994    -0.029646    -0.028716    0.055054
F    1.050969898    -0.43083334100000004    -3.520347504    0.062014    -0.01937    -0.08651
F    0.012916575000000013    1.982043414    -2.291320031    0.037106    -0.006976    -0.027472
F    -2.125340157    0.5829821510000001    -2.429255228    -0.128516    0.007423    -0.01805
F    -0.133452868    0.232315239    -0.35080940800000004    0.15329    0.022554    0.011356
