12
Properties=species:S:1:pos:R:3:forces:R:3 energy=-186.39284266 pbc="F F F"
Al    -0.085855957    1.642368396    2.144015621    0.006108    0.038365    -0.012946
Al    2.514775996    2.553528225    1.741599975    0.028441    0.026837    0.00931
Al    1.351125758    2.672596181    -0.670722653    0.002851    -0.010461    0.027248
F    1.049971652    2.944666919    2.969354632    -0.001838    -0.002466    -0.003391
F    -1.574019947    2.7265691430000003    1.7896979949999998    -0.003546    0.003413    0.002832
F    -0.44167086    0.155251482    3.36814846    -0.010659    -0.040081    0.003134
F    1.7623019690000001    0.818865685    1.685633034    -0.00157    -0.01559    0.002806
F    3.0569515419999997    2.0032117720000002    -0.165686954    -0.005148    -0.00169    -0.005309
F    1.1118629139999998    3.176692252    -2.3933054040000004    -0.003608    0.001078    -0.016766
F    1.584852568    3.9603135870000004    0.7385264650000001    0.000715    0.002339    -0.001782
F    4.091421566    3.049167911    2.4871034680000004    -0.015462    -0.004437    -0.00755
F    0.029857200000000004    1.670439668    0.125836105    0.003715    0.002693    0.002415
