      12
SCF Done            -186.39284265
Al           -0.077990957         1.643636396         2.155355621
Al            2.528109996         2.612976225         1.769203975
Al            1.359176758         2.660926181        -0.643354653
F             0.997226652         3.107842919         2.823137632
F            -1.578311947         2.686590143         2.216622995
F            -0.501386860        -0.047423518         2.682262460
F             1.817029969         0.873346685         1.960954034
F             2.957185542         1.841808772        -0.063749954
F             1.080824914         3.015274252        -2.394813404
F             1.763540568         4.019543587         0.622741465
F             4.113590566         3.137983911         2.456071468
F            -0.013024800         1.811765668         0.223060105
