12
Properties=species:S:1:pos:R:3:forces:R:3 energy=-185.77532201 pbc="F F F"
Al    -0.29163143799999997    0.34380756    -1.852953936    -3.254646    -0.734346    -1.623099
Al    -0.460860314    1.080885853    1.274956636    -0.538147    -0.121274    -0.260435
Al    -3.1022465190000004    0.37957848899999996    -1.898534542    -3.804069    -0.860681    -2.021284
F    -3.506412261    0.336069808    -3.512283708    0.938013    0.2688    3.46458
F    -1.1050563569999998    -0.09704310099999996    -1.844524445    1.409855    0.589013    0.095645
F    -2.303777887    2.388219403    -1.899458583    1.52647    0.049426    0.105936
F    -2.022951725    0.733799739    0.462163624    0.532801    0.120072    0.258148
F    0.617237327    1.315032643    -0.234668511    0.937188    0.238275    1.873462
F    -0.30331677500000004    2.739002997    1.989952147    0.055231    0.258142    0.066579
F    0.376195515    -0.36617945799999996    2.055528445    0.15634    -0.209705    0.0755
F    -4.2336152920000005    0.22500727    -0.622596365    1.561011    0.306802    -1.602379
F    0.752285227    1.280633337    -3.2463662290000004    0.47995    0.095475    -0.432652
