12
Properties=species:S:1:pos:R:3:forces:R:3 energy=-185.92585040 pbc="F F F"
Al    -0.048535856999999995    1.734748196    1.9329739209999999    0.627036    -0.644625    0.148831
Al    2.7757832959999997    2.409665225    1.6817159750000001    -0.852014    -1.002013    -2.361362
Al    1.018481858    2.8078901810000003    -0.47586605299999996    -0.083197    0.86972    -0.200385
F    1.135241552    3.040446519    2.553805432    0.141506    0.153029    0.016369
F    -1.530461347    2.847569543    2.102724095    -0.065443    0.546678    0.066413
F    -0.19887426000000002    0.038113582    2.81935706    -0.257123    -0.044042    0.063414
F    1.993236169    0.7275003849999999    1.8814250339999998    0.059625    -0.133437    0.234085
F    2.582315742    1.7457804719999999    -0.12161325399999999    -0.063518    0.131741    0.725519
F    1.4227507140000002    2.979055352    -2.322751004    0.133004    -0.077947    -0.279344
F    1.702750868    4.046174387    0.741172065    0.002247    -0.02277    0.101452
F    3.919108166    3.339508811    2.874028968    0.501452    0.680253    1.198397
F    -0.3136428    1.6411561680000002    0.16780510499999998    -0.143577    -0.456587    0.286612
