      12
SCF Done            -185.92585040
Al            0.001077143         1.568163196         2.221104921
Al            2.546772296         2.495721225         1.627300975
Al            1.237055858         2.823654181        -0.688509053
F             1.091295552         3.076600519         2.720407432
F            -1.393148347         2.788653543         2.228705095
F            -0.625773260        -0.045031418         2.797457060
F             1.855909169         0.751898385         2.025132034
F             2.854961742         1.907864472        -0.119482254
F             1.159226714         3.007945352        -2.496779004
F             1.732912868         4.097214387         0.603124065
F             3.916337166         3.207617811         2.687595968
F             0.074018200         1.689719168         0.224681105
