12
Properties=species:S:1:pos:R:3:forces:R:3 energy=-180.51477130 pbc="F F F"
Al    0.24771307199999998    -2.4580852109999998    -1.8951429610000001    0.033595    0.185979    0.037144
Al    1.95351793    -0.637982856    -0.791002324    -2.313229    -2.637469    -1.374312
Al    -0.42774660600000003    0.188783503    -1.655963983    0.127098    -3.287737    -0.32396
F    3.479110688    -0.211517216    -0.169785323    -2.271211    -0.739471    -1.134043
F    -0.256597274    -4.350494192999999    -2.2874564360000003    -0.937561    -3.708096    -0.864132
F    2.4337183380000003    -1.504301376    -2.1845263889999997    2.55411    3.231514    1.717164
F    2.030045495    0.659175639    -2.2106736199999997    -0.851807    -1.500926    2.594594
F    -1.392786522    1.548160631    -2.146120311    1.083192    -1.484117    0.327099
F    -1.398336386    -1.222535252    -0.6925214689999999    -1.057844    3.727924    0.593449
F    -0.295191274    -0.524352409    -3.0927510810000003    -0.570454    3.85085    -0.462815
F    0.33245609600000003    0.304224298    -0.7647471020000001    1.52767    -0.900814    -2.562233
F    1.232919334    -1.96401321    0.126033727    2.676439    3.262362    1.452044
