12
Properties=species:S:1:pos:R:3:forces:R:3 energy=-184.81031778 pbc="F F F"
Al    -0.326575038    0.3282266600000001    -1.8759758359999998    -4.883976    -1.094972    -2.068604
Al    -0.466787414    1.0815534530000002    1.271652136    -0.856859    -0.193296    -0.425127
Al    -3.153584719    0.387175589    -1.919293842    -5.367962    -1.221414    -3.213894
F    -3.491370361    0.335649008    -3.4683503079999998    1.303812    0.385576    5.442299
F    -1.084674957    -0.09639300100000003    -1.8509543450000001    2.053857    0.997639    0.128605
F    -2.281992787    2.3861304029999997    -1.890138583    2.28144    -0.055411    0.14869
F    -2.0152699249999997    0.7334567390000001    0.465562224    0.800096    0.180615    0.403728
F    0.631179827    1.3212363429999998    -0.20430321099999998    1.279326    0.325221    2.555278
F    -0.302537575    2.742482197    1.991513347    0.096226    0.385453    0.087838
F    0.378049215    -0.369409558    2.056242745    0.246064    -0.30787    0.101058
F    -4.2109454920000005    0.22674357    -0.6433967650000001    2.303429    0.450176    -2.497728
F    0.758025527    1.2833646369999998    -3.2523203290000002    0.744546    0.148282    -0.662145
