12
Properties=species:S:1:pos:R:3:forces:R:3 energy=-186.27577632 pbc="F F F"
Al    1.06495468    0.018058316999999997    2.316540073    0.337016    0.791438    0.218391
Al    1.211439    1.641093    0.013474    -2.298713    0.498025    0.854751
Al    -0.421617562    0.74832925    -2.106883773    0.218512    0.849641    -0.134191
F    -1.295077172    -0.905220453    -2.3753906060000003    0.058012    -1.117644    0.012888
F    1.393835253    -0.324797953    0.519869452    -0.176077    -0.733106    -0.384807
F    0.180500139    1.81639829    -3.498488333    0.046392    -0.034483    -0.020988
F    -0.25498081    2.445766753    -0.9230070490000001    -0.091218    0.761736    -0.267845
F    3.007053557    2.099328512    -0.514322443    1.756519    0.26139    -0.547157
F    0.867863239    -0.066417595    -1.0452022539999999    0.01431    -0.826634    0.181685
F    0.665886117    1.993393429    1.817120039    0.158877    0.638878    0.476336
F    2.472068969    0.690679076    3.320279437    0.046221    -0.034397    -0.021501
F    0.361896675    -1.719199352    2.555074071    -0.069851    -1.054845    -0.367562
