12
-186.39349496
Al		-0.078001617		1.640693956		2.155525039
Al		2.525275099		2.606990911		1.76564404
Al		1.358283218		2.664293396		-0.646899883
F		1.001129196		3.093091681		2.835301008
F		-1.578179434		2.685036333		2.176032138
F		-0.49289083		-0.026687733		2.752684994
F		1.809252411		0.868168303		1.9340079
F		2.965362406		1.857259542		-0.072817897
F		1.087653309		3.0348471		-2.395399734
F		1.747907762		4.015060239		0.632950865
F		4.110730999		3.125471069		2.459591774
F		-0.009835285		1.80111181		0.21220093
