12
-186.39349496
Al		-0.088991013		1.633009972		2.18397952
Al		2.516860396		2.592525625		1.757968075
Al		1.351307084		2.647345784		-0.633260554
F		0.991607178		3.103501036		2.812743363
F		-1.564472983		2.714420622		2.149396386
F		-0.471047371		-0.055740966		2.74662263
F		1.793913153		0.855764593		1.931595765
F		2.993583445		1.888116753		-0.077518516
F		1.092751809		3.038427633		-2.377968012
F		1.761061694		4.014431787		0.622813067
F		4.098062068		3.125816777		2.44777058
F		-0.022892791		1.81520941		0.238083193
