12
-186.39349496
Al		-0.079222661		1.63984018		2.158686648
Al		2.524340132		2.605383657		1.764791155
Al		1.357508092		2.662410328		-0.645384402
F		1.000071194		3.094248276		2.832794603
F		-1.576656495		2.688301254		2.17307261
F		-0.490463779		-0.02991587		2.752011398
F		1.807548049		0.866790113		1.933739885
F		2.968498077		1.860688121		-0.073340188
F		1.088219809		3.035244937		-2.393462876
F		1.74936931		4.014990411		0.631824443
F		4.10932334		3.125509481		2.458278308
F		-0.011286119		1.80267821		0.215076737
