12
-186.39349496
Al		-0.079555673		1.639607332		2.159548905
Al		2.524085141		2.604945315		1.76455855
Al		1.357296694		2.661896764		-0.644971089
F		0.999782648		3.094563711		2.832111038
F		-1.576241148		2.689191687		2.172265466
F		-0.489801856		-0.030796271		2.75182769
F		1.807083223		0.866414243		1.93366679
F		2.96935326		1.861623188		-0.073482631
F		1.088374309		3.035353438		-2.392934642
F		1.749767914		4.014971367		0.631517237
F		4.108939433		3.125519957		2.45792009
F		-0.011681801		1.80310541		0.215861048
