12
-186.39349496
Al		-0.079777681		1.6394521		2.160123743
Al		2.523915147		2.604653087		1.76440348
Al		1.357155762		2.661554388		-0.644695547
F		0.999590284		3.094774001		2.831655328
F		-1.57596425		2.689785309		2.17172737
F		-0.489360574		-0.031383205		2.751705218
F		1.806773339		0.866163663		1.93361806
F		2.969923382		1.862246566		-0.073577593
F		1.088477309		3.035425772		-2.392582486
F		1.75003365		4.014958671		0.631312433
F		4.108683495		3.125526941		2.457681278
F		-0.011945589		1.80339021		0.216383922
