12
-186.39349496
Al		-0.079999689		1.639296868		2.160698581
Al		2.523745153		2.604360859		1.76424841
Al		1.35701483		2.661212012		-0.644420005
F		0.99939792		3.094984291		2.831199618
F		-1.575687352		2.690378931		2.171189274
F		-0.488919292		-0.031970139		2.751582746
F		1.806463455		0.865913083		1.93356933
F		2.970493504		1.862869944		-0.073672555
F		1.088580309		3.035498106		-2.39223033
F		1.750299386		4.014945975		0.631107629
F		4.108427557		3.125533925		2.457442466
F		-0.012209377		1.80367501		0.216906796
