12
-186.39349496
Al		-0.078112621		1.64061634		2.155812458
Al		2.525190102		2.606844797		1.765566505
Al		1.358212752		2.664122208		-0.646762112
F		1.001033014		3.093196826		2.835073153
F		-1.578040985		2.685333144		2.17576309
F		-0.492670189		-0.0269812		2.752623758
F		1.809097469		0.868043013		1.933983535
F		2.965647467		1.857571231		-0.072865378
F		1.087704809		3.034883267		-2.395223656
F		1.74804063		4.015053891		0.632848463
F		4.11060303		3.125474561		2.459472368
F		-0.009967179		1.80125421		0.212462367
