12
-186.39349496
Al		-0.080332701		1.63906402		2.161560838
Al		2.523490162		2.603922517		1.764015805
Al		1.356803432		2.660698448		-0.644006692
F		0.999109374		3.095299726		2.830516053
F		-1.575272005		2.691269364		2.17038213
F		-0.488257369		-0.03285054		2.751399038
F		1.805998629		0.865537213		1.933496235
F		2.971348687		1.863805011		-0.073814998
F		1.088734809		3.035606607		-2.391702096
F		1.75069799		4.014926931		0.630800423
F		4.10804365		3.125544401		2.457084248
F		-0.012605059		1.80410221		0.217691107
