12
-186.39349496
Al		-0.080443705		1.638986404		2.161848257
Al		2.523405165		2.603776403		1.76393827
Al		1.356732966		2.66052726		-0.643868921
F		0.999013192		3.095404871		2.830288198
F		-1.575133556		2.691566175		2.170113082
F		-0.488036728		-0.033144007		2.751337802
F		1.805843687		0.865411923		1.93347187
F		2.971633748		1.8641167		-0.073862479
F		1.088786309		3.035642774		-2.391526018
F		1.750830858		4.014920583		0.630698021
F		4.107915681		3.125547893		2.456964842
F		-0.012736953		1.80424461		0.217952544
