12
-186.39349496
Al		-0.081220733		1.638443092		2.16386019
Al		2.522810186		2.602753605		1.763395525
Al		1.356239704		2.659328944		-0.642904524
F		0.998339918		3.096140886		2.828693213
F		-1.574164413		2.693643852		2.168229746
F		-0.486492241		-0.035198276		2.75090915
F		1.804759093		0.864534893		1.933301315
F		2.973629175		1.866298523		-0.074194846
F		1.089146809		3.035895943		-2.390293472
F		1.751760934		4.014876147		0.629981207
F		4.107019898		3.125572337		2.456129
F		-0.013660211		1.80524141		0.219782603
