12
-186.39349496
Al		-0.081442741		1.63828786		2.164435028
Al		2.522640192		2.602461377		1.763240455
Al		1.356098772		2.658986568		-0.642628982
F		0.998147554		3.096351176		2.828237503
F		-1.573887515		2.694237474		2.16769165
F		-0.486050959		-0.03578521		2.750786678
F		1.804449209		0.864284313		1.933252585
F		2.974199297		1.866921901		-0.074289808
F		1.089249809		3.035968277		-2.389941316
F		1.75202667		4.014863451		0.629776403
F		4.10676396		3.125579321		2.455890188
F		-0.013923999		1.80552621		0.220305477
