12
-186.39349496
Al		-0.078334629		1.640461108		2.156387296
Al		2.525020108		2.606552569		1.765411435
Al		1.35807182		2.663779832		-0.64648657
F		1.00084065		3.093407116		2.834617443
F		-1.577764087		2.685926766		2.175224994
F		-0.492228907		-0.027568134		2.752501286
F		1.808787585		0.867792433		1.933934805
F		2.966217589		1.858194609		-0.07296034
F		1.087807809		3.034955601		-2.3948715
F		1.748306366		4.015041195		0.632643659
F		4.110347092		3.125481545		2.459233556
F		-0.010230967		1.80153901		0.212985241
