12
-186.39349496
Al		-0.082441777		1.637589316		2.167021799
Al		2.521875219		2.601146351		1.76254264
Al		1.355464578		2.657445876		-0.641389043
F		0.997281916		3.097297481		2.826186808
F		-1.572641474		2.696908773		2.165270218
F		-0.48406519		-0.038426413		2.750235554
F		1.803054731		0.863156703		1.9330333
F		2.976764846		1.869727102		-0.074717137
F		1.089713309		3.03629378		-2.388356614
F		1.753222482		4.014806319		0.628854785
F		4.105612239		3.125610749		2.454815534
F		-0.015111045		1.80680781		0.22265841
