12
-186.39349496
Al		-0.082885793		1.637278852		2.168171475
Al		2.521535231		2.600561895		1.7622325
Al		1.355182714		2.656761124		-0.640837959
F		0.996897188		3.097718061		2.825275388
F		-1.572087678		2.698096017		2.164194026
F		-0.483182626		-0.039600281		2.74999061
F		1.802434963		0.862655543		1.93293584
F		2.97790509		1.870973858		-0.074907061
F		1.089919309		3.036438448		-2.387652302
F		1.753753954		4.014780927		0.628445177
F		4.105100363		3.125624717		2.45433791
F		-0.015638621		1.80737741		0.223704158
