12
-186.39349496
Al		-0.082996797		1.637201236		2.168458894
Al		2.521450234		2.600415781		1.762154965
Al		1.355112248		2.656589936		-0.640700188
F		0.996801006		3.097823206		2.825047533
F		-1.571949229		2.698392828		2.163924978
F		-0.482961985		-0.039893748		2.749929374
F		1.802280021		0.862530253		1.932911475
F		2.978190151		1.871285547		-0.074954542
F		1.089970809		3.036474615		-2.387476224
F		1.753886822		4.014774579		0.628342775
F		4.104972394		3.125628209		2.454218504
F		-0.015770515		1.80751981		0.223965595
