12
-186.39349496
Al		-0.083218805		1.637046004		2.169033732
Al		2.52128024		2.600123553		1.761999895
Al		1.354971316		2.65624756		-0.640424646
F		0.996608642		3.098033496		2.824591823
F		-1.571672331		2.69898645		2.163386882
F		-0.482520703		-0.040480682		2.749806902
F		1.801970137		0.862279673		1.932862745
F		2.978760273		1.871908925		-0.075049504
F		1.090073809		3.036546949		-2.387124068
F		1.754152558		4.014761883		0.628137971
F		4.104716456		3.125635193		2.453979692
F		-0.016034303		1.80780461		0.224488469
