12
-186.39349496
Al		-0.083551817		1.636813156		2.169895989
Al		2.521025249		2.599685211		1.76176729
Al		1.354759918		2.655733996		-0.640011333
F		0.996320096		3.098348931		2.823908258
F		-1.571256984		2.699876883		2.162579738
F		-0.48185878		-0.041361083		2.749623194
F		1.801505311		0.861903803		1.93278965
F		2.979615456		1.872843992		-0.075191947
F		1.090228309		3.03665545		-2.386595834
F		1.754551162		4.014742839		0.627830765
F		4.104332549		3.125645669		2.453621474
F		-0.016429985		1.80823181		0.22527278
