12
-186.39349496
Al		-0.083773825		1.636657924		2.170470827
Al		2.520855255		2.599392983		1.76161222
Al		1.354618986		2.65539162		-0.639735791
F		0.996127732		3.098559221		2.823452548
F		-1.570980086		2.700470505		2.162041642
F		-0.481417498		-0.041948017		2.749500722
F		1.801195427		0.861653223		1.93274092
F		2.980185578		1.87346737		-0.075286909
F		1.090331309		3.036727784		-2.386243678
F		1.754816898		4.014730143		0.627625961
F		4.104076611		3.125652653		2.453382662
F		-0.016693773		1.80851661		0.225795654
