12
-186.39349496
Al		-0.083884829		1.636580308		2.170758246
Al		2.520770258		2.599246869		1.761534685
Al		1.35454852		2.655220432		-0.63959802
F		0.99603155		3.098664366		2.823224693
F		-1.570841637		2.700767316		2.161772594
F		-0.481196857		-0.042241484		2.749439486
F		1.801040485		0.861527933		1.932716555
F		2.980470639		1.873779059		-0.07533439
F		1.090382809		3.036763951		-2.3860676
F		1.754949766		4.014723795		0.627523559
F		4.103948642		3.125656145		2.453263256
F		-0.016825667		1.80865901		0.226057091
