12
-186.39349496
Al		-0.084106837		1.636425076		2.171333084
Al		2.520600264		2.598954641		1.761379615
Al		1.354407588		2.654878056		-0.639322478
F		0.995839186		3.098874656		2.822768983
F		-1.570564739		2.701360938		2.161234498
F		-0.480755575		-0.042828418		2.749317014
F		1.800730601		0.861277353		1.932667825
F		2.981040761		1.874402437		-0.075429352
F		1.090485809		3.036836285		-2.385715444
F		1.755215502		4.014711099		0.627318755
F		4.103692704		3.125663129		2.453024444
F		-0.017089455		1.80894381		0.226579965
