12
-186.39349496
Al		-0.084439849		1.636192228		2.172195341
Al		2.520345273		2.598516299		1.76114701
Al		1.35419619		2.654364492		-0.638909165
F		0.99555064		3.099190091		2.822085418
F		-1.570149392		2.702251371		2.160427354
F		-0.480093652		-0.043708819		2.749133306
F		1.800265775		0.860901483		1.93259473
F		2.981895944		1.875337504		-0.075571795
F		1.090640309		3.036944786		-2.38518721
F		1.755614106		4.014692055		0.627011549
F		4.103308797		3.125673605		2.452666226
F		-0.017485137		1.80937101		0.227364276
