12
-186.39349496
Al		-0.085105873		1.635726532		2.173919855
Al		2.519835291		2.597639615		1.7606818
Al		1.353773394		2.653337364		-0.638082539
F		0.994973548		3.099820961		2.820718288
F		-1.569318698		2.704032237		2.158813066
F		-0.478769806		-0.045469621		2.74876589
F		1.799336123		0.860149743		1.93244854
F		2.98360631		1.877207638		-0.075856681
F		1.090949309		3.037161788		-2.384130742
F		1.756411314		4.014653967		0.626397137
F		4.102540983		3.125694557		2.45194979
F		-0.018276501		1.81022541		0.228932898
