12
-186.39349496
Al		-0.085327881		1.6355713		2.174494693
Al		2.519665297		2.597347387		1.76052673
Al		1.353632462		2.652994988		-0.637806997
F		0.994781184		3.100031251		2.820262578
F		-1.5690418		2.704625859		2.15827497
F		-0.478328524		-0.046056555		2.748643418
F		1.799026239		0.859899163		1.93239981
F		2.984176432		1.877831016		-0.075951643
F		1.091052309		3.037234122		-2.383778586
F		1.75667705		4.014641271		0.626192333
F		4.102285045		3.125701541		2.451710978
F		-0.018540289		1.81051021		0.229455772
