12
-186.39349496
Al		-0.085771897		1.635260836		2.175644369
Al		2.519325309		2.596762931		1.76021659
Al		1.353350598		2.652310236		-0.637255913
F		0.994396456		3.100451831		2.819351158
F		-1.568488004		2.705813103		2.157198778
F		-0.47744596		-0.047230423		2.748398474
F		1.798406471		0.859398003		1.93230235
F		2.985316676		1.879077772		-0.076141567
F		1.091258309		3.03737879		-2.383074274
F		1.757208522		4.014615879		0.625782725
F		4.101773169		3.125715509		2.451233354
F		-0.019067865		1.81107981		0.23050152
