12
-186.39349496
Al		-0.085882901		1.63518322		2.175931788
Al		2.519240312		2.596616817		1.760139055
Al		1.353280132		2.652139048		-0.637118142
F		0.994300274		3.100556976		2.819123303
F		-1.568349555		2.706109914		2.15692973
F		-0.477225319		-0.04752389		2.748337238
F		1.798251529		0.859272713		1.932277985
F		2.985601737		1.879389461		-0.076189048
F		1.091309809		3.037414957		-2.382898196
F		1.75734139		4.014609531		0.625680323
F		4.1016452		3.125719001		2.451113948
F		-0.019199759		1.81122221		0.230762957
