12
-186.39349496
Al		-0.086770933		1.634562292		2.17823114
Al		2.518560336		2.595447905		1.759518775
Al		1.352716404		2.650769544		-0.636015974
F		0.993530818		3.101398136		2.817300463
F		-1.567241963		2.708484402		2.154777346
F		-0.475460191		-0.049871626		2.74784735
F		1.797011993		0.858270393		1.932083065
F		2.987882225		1.881882973		-0.076568896
F		1.091721809		3.037704293		-2.381489572
F		1.758404334		4.014558747		0.624861107
F		4.100621448		3.125746937		2.4501587
F		-0.020254911		1.81236141		0.232854453
