12
-186.39349496
Al		-0.086992941		1.63440706		2.178805978
Al		2.518390342		2.595155677		1.759363705
Al		1.352575472		2.650427168		-0.635740432
F		0.993338454		3.101608426		2.816844753
F		-1.566965065		2.709078024		2.15423925
F		-0.475018909		-0.05045856		2.747724878
F		1.796702109		0.858019813		1.932034335
F		2.988452347		1.882506351		-0.076663858
F		1.091824809		3.037776627		-2.381137416
F		1.75867007		4.014546051		0.624656303
F		4.10036551		3.125753921		2.449919888
F		-0.020518699		1.81264621		0.233377327
