12
-186.39349496
Al		-0.087325953		1.634174212		2.179668235
Al		2.518135351		2.594717335		1.7591311
Al		1.352364074		2.649913604		-0.635327119
F		0.993049908		3.101923861		2.816161188
F		-1.566549718		2.709968457		2.153432106
F		-0.474356986		-0.051338961		2.74754117
F		1.796237283		0.857643943		1.93196124
F		2.98930753		1.883441418		-0.076806301
F		1.091979309		3.037885128		-2.380609182
F		1.759068674		4.014527007		0.624349097
F		4.099981603		3.125764397		2.44956167
F		-0.020914381		1.81307341		0.234161638
