12
-186.39349496
Al		-0.087547961		1.63401898		2.180243073
Al		2.517965357		2.594425107		1.75897603
Al		1.352223142		2.649571228		-0.635051577
F		0.992857544		3.102134151		2.815705478
F		-1.56627282		2.710562079		2.15289401
F		-0.473915704		-0.051925895		2.747418698
F		1.795927399		0.857393363		1.93191251
F		2.989877652		1.884064796		-0.076901263
F		1.092082309		3.037957462		-2.380257026
F		1.75933441		4.014514311		0.624144293
F		4.099725665		3.125771381		2.449322858
F		-0.021178169		1.81335821		0.234684512
