12
-186.39349496
Al		-0.087769969		1.633863748		2.180817911
Al		2.517795363		2.594132879		1.75882096
Al		1.35208221		2.649228852		-0.634776035
F		0.99266518		3.102344441		2.815249768
F		-1.565995922		2.711155701		2.152355914
F		-0.473474422		-0.052512829		2.747296226
F		1.795617515		0.857142783		1.93186378
F		2.990447774		1.884688174		-0.076996225
F		1.092185309		3.038029796		-2.37990487
F		1.759600146		4.014501615		0.623939489
F		4.099469727		3.125778365		2.449084046
F		-0.021441957		1.81364301		0.235207386
