12
-186.39349496
Al		-0.087991977		1.633708516		2.181392749
Al		2.517625369		2.593840651		1.75866589
Al		1.351941278		2.648886476		-0.634500493
F		0.992472816		3.102554731		2.814794058
F		-1.565719024		2.711749323		2.151817818
F		-0.47303314		-0.053099763		2.747173754
F		1.795307631		0.856892203		1.93181505
F		2.991017896		1.885311552		-0.077091187
F		1.092288309		3.03810213		-2.379552714
F		1.759865882		4.014488919		0.623734685
F		4.099213789		3.125785349		2.448845234
F		-0.021705745		1.81392781		0.23573026
