12
-186.39349496
Al		-0.088102981		1.6336309		2.181680168
Al		2.517540372		2.593694537		1.758588355
Al		1.351870812		2.648715288		-0.634362722
F		0.992376634		3.102659876		2.814566203
F		-1.565580575		2.712046134		2.15154877
F		-0.472812499		-0.05339323		2.747112518
F		1.795152689		0.856766913		1.931790685
F		2.991302957		1.885623241		-0.077138668
F		1.092339809		3.038138297		-2.379376636
F		1.75999875		4.014482571		0.623632283
F		4.09908582		3.125788841		2.448725828
F		-0.021837639		1.81407021		0.235991697
