12
-186.39349496
Al		-0.088658001		1.63324282		2.183117263
Al		2.517115387		2.592963967		1.75820068
Al		1.351518482		2.647859348		-0.633673867
F		0.991895724		3.103185601		2.813426928
F		-1.56488833		2.713530189		2.15020353
F		-0.471709294		-0.054860565		2.746806338
F		1.794377979		0.856140463		1.93166886
F		2.992728262		1.887181686		-0.077376073
F		1.092597309		3.038319132		-2.378496246
F		1.76066309		4.014450831		0.623120273
F		4.098445975		3.125806301		2.448128798
F		-0.022497109		1.81478221		0.237298882
