12
-186.39349496
Al		-0.088769005		1.633165204		2.183404682
Al		2.51703039		2.592817853		1.758123145
Al		1.351448016		2.64768816		-0.633536096
F		0.991799542		3.103290746		2.813199073
F		-1.564749881		2.713827		2.149934482
F		-0.471488653		-0.055154032		2.746745102
F		1.794223037		0.856015173		1.931644495
F		2.993013323		1.887493375		-0.077423554
F		1.092648809		3.038355299		-2.378320168
F		1.760795958		4.014444483		0.623017871
F		4.098318006		3.125809793		2.448009392
F		-0.022629003		1.81492461		0.237560319
