12
-186.39349496
Al		-0.088880009		1.633087588		2.183692101
Al		2.516945393		2.592671739		1.75804561
Al		1.35137755		2.647516972		-0.633398325
F		0.99170336		3.103395891		2.812971218
F		-1.564611432		2.714123811		2.149665434
F		-0.471268012		-0.055447499		2.746683866
F		1.794068095		0.855889883		1.93162013
F		2.993298384		1.887805064		-0.077471035
F		1.092700309		3.038391466		-2.37814409
F		1.760928826		4.014438135		0.622915469
F		4.098190037		3.125813285		2.447889986
F		-0.022760897		1.81506701		0.237821756
