12
-186.39349496
Al		-0.076669569		1.641625348		2.152076011
Al		2.526295063		2.608744279		1.76657446
Al		1.35912881		2.666347652		-0.648553135
F		1.00228338		3.091829941		2.838035268
F		-1.579840822		2.681474601		2.179260714
F		-0.495538522		-0.023166129		2.753419826
F		1.811111715		0.869671783		1.93430028
F		2.961941674		1.853519274		-0.072248125
F		1.087035309		3.034413096		-2.39751267
F		1.746313346		4.015136415		0.634179689
F		4.112266627		3.125429165		2.461024646
F		-0.008252557		1.79940301		0.209063686
