12
-186.39349496
Al		-0.076114549		1.642013428		2.150638916
Al		2.526720048		2.609474849		1.766962135
Al		1.35948114		2.667203592		-0.64924199
F		1.00276429		3.091304216		2.839174543
F		-1.580533067		2.679990546		2.180605954
F		-0.496641727		-0.021698794		2.753726006
F		1.811886425		0.870298233		1.934422105
F		2.960516369		1.851960829		-0.07201072
F		1.086777809		3.034232261		-2.39839306
F		1.745649006		4.015168155		0.634691699
F		4.112906472		3.125411705		2.461621676
F		-0.007593087		1.79869101		0.207756501
