12
-186.39349496
Al		-0.077668605		1.640926804		2.154662782
Al		2.52553009		2.607429253		1.765876645
Al		1.358494616		2.66480696		-0.647313196
F		1.001417742		3.092776246		2.835984573
F		-1.578594781		2.6841459		2.176839282
F		-0.493552753		-0.025807332		2.752868702
F		1.809717237		0.868544173		1.934080995
F		2.964507223		1.856324475		-0.072675454
F		1.087498809		3.034738599		-2.395927968
F		1.747509158		4.015079283		0.633258071
F		4.111114906		3.125460593		2.459949992
F		-0.009439603		1.80068461		0.211416619
