12
-186.39349496
Al		-0.075559529		1.642401508		2.149201821
Al		2.527145033		2.610205419		1.76734981
Al		1.35983347		2.668059532		-0.649930845
F		1.0032452		3.090778491		2.840313818
F		-1.581225312		2.678506491		2.181951194
F		-0.497744932		-0.020231459		2.754032186
F		1.812661135		0.870924683		1.93454393
F		2.959091064		1.850402384		-0.071773315
F		1.086520309		3.034051426		-2.39927345
F		1.744984666		4.015199895		0.635203709
F		4.113546317		3.125394245		2.462218706
F		-0.006933617		1.79797901		0.206449316
