12
-186.39349496
Al		-0.075115513		1.642711972		2.148052145
Al		2.527485021		2.610789875		1.76765995
Al		1.360115334		2.668744284		-0.650481929
F		1.003629928		3.090357911		2.841225238
F		-1.581779108		2.677319247		2.183027386
F		-0.498627496		-0.019057591		2.75427713
F		1.813280903		0.871425843		1.93464139
F		2.95795082		1.849155628		-0.071583391
F		1.086314309		3.033906758		-2.399977762
F		1.744453194		4.015225287		0.635613317
F		4.114058193		3.125380277		2.46269633
F		-0.006406041		1.79740941		0.205403568
