12
-186.39349496
Al		-0.074893505		1.642867204		2.147477307
Al		2.527655015		2.611082103		1.76781502
Al		1.360256266		2.66908666		-0.650757471
F		1.003822292		3.090147621		2.841680948
F		-1.582056006		2.676725625		2.183565482
F		-0.499068778		-0.018470657		2.754399602
F		1.813590787		0.871676423		1.93469012
F		2.957380698		1.84853225		-0.071488429
F		1.086211309		3.033834424		-2.400329918
F		1.744187458		4.015237983		0.635818121
F		4.114314131		3.125373293		2.462935142
F		-0.006142253		1.79712461		0.204880694
