12
-186.39349496
Al		-0.077557601		1.64100442		2.154375363
Al		2.525615087		2.607575367		1.76595418
Al		1.358565082		2.664978148		-0.647450967
F		1.001513924		3.092671101		2.836212428
F		-1.57873323		2.683849089		2.17710833
F		-0.493773394		-0.025513865		2.752929938
F		1.809872179		0.868669463		1.93410536
F		2.964222162		1.856012786		-0.072627973
F		1.087447309		3.034702432		-2.396104046
F		1.74737629		4.015085631		0.633360473
F		4.111242875		3.125457101		2.460069398
F		-0.009307709		1.80054221		0.211155182
