12
-186.39349496
Al		-0.074338485		1.643255284		2.146040212
Al		2.52808		2.611812673		1.768202695
Al		1.360608596		2.6699426		-0.651446326
F		1.004303202		3.089621896		2.842820223
F		-1.582748251		2.67524157		2.184910722
F		-0.500171983		-0.017003322		2.754705782
F		1.814365497		0.872302873		1.934811945
F		2.955955393		1.846973805		-0.071251024
F		1.085953809		3.033653589		-2.401210308
F		1.743523118		4.015269723		0.636330131
F		4.114953976		3.125355833		2.463532172
F		-0.005482783		1.79641261		0.203573509
