12
-186.39349496
Al		-0.072673425		1.644419524		2.141728927
Al		2.529354955		2.614004383		1.76936572
Al		1.361665586		2.67251042		-0.653512891
F		1.005745932		3.088044721		2.846238048
F		-1.584824986		2.670789405		2.188946442
F		-0.503481598		-0.012601317		2.755624322
F		1.816689627		0.874182223		1.93517742
F		2.951679478		1.84229847		-0.070538809
F		1.085181309		3.033111084		-2.403851478
F		1.741530098		4.015364943		0.637866161
F		4.116873511		3.125303453		2.465323262
F		-0.003504373		1.79427661		0.199651954
