12
-186.39349496
Al		-0.072451417		1.644574756		2.141154089
Al		2.529524949		2.614296611		1.76952079
Al		1.361806518		2.672852796		-0.653788433
F		1.005938296		3.087834431		2.846693758
F		-1.585101884		2.670195783		2.189484538
F		-0.50392288		-0.012014383		2.755746794
F		1.816999511		0.874432803		1.93522615
F		2.951109356		1.841675092		-0.070443847
F		1.085078309		3.03303875		-2.404203634
F		1.741264362		4.015377639		0.638070965
F		4.117129449		3.125296469		2.465562074
F		-0.003240585		1.79399181		0.19912908
