12
-186.39349496
Al		-0.071785393		1.645040452		2.139429575
Al		2.530034931		2.615173295		1.769986
Al		1.362229314		2.673879924		-0.654615059
F		1.006515388		3.087203561		2.848060888
F		-1.585932578		2.668414917		2.191098826
F		-0.505246726		-0.010253581		2.75611421
F		1.817929163		0.875184543		1.93537234
F		2.94939899		1.839804958		-0.070158961
F		1.084769309		3.032821748		-2.405260102
F		1.740467154		4.015415727		0.638685377
F		4.117897263		3.125275517		2.46627851
F		-0.002449221		1.79313741		0.197560458
