12
-186.39349496
Al		-0.071563385		1.645195684		2.138854737
Al		2.530204925		2.615465523		1.77014107
Al		1.362370246		2.6742223		-0.654890601
F		1.006707752		3.086993271		2.848516598
F		-1.586209476		2.667821295		2.191636922
F		-0.505688008		-0.009666647		2.756236682
F		1.818239047		0.875435123		1.93542107
F		2.948828868		1.83918158		-0.070063999
F		1.084666309		3.032749414		-2.405612258
F		1.740201418		4.015428423		0.638890181
F		4.118153201		3.125268533		2.466517322
F		-0.002185433		1.79285261		0.197037584
