12
-186.39349496
Al		-0.071008365		1.645583764		2.137417642
Al		2.53062991		2.616196093		1.770528745
Al		1.362722576		2.67507824		-0.655579456
F		1.007188662		3.086467546		2.849655873
F		-1.586901721		2.66633724		2.192982162
F		-0.506791213		-0.008199312		2.756542862
F		1.819013757		0.876061573		1.935542895
F		2.947403563		1.837623135		-0.069826594
F		1.084408809		3.032568579		-2.406492648
F		1.739537078		4.015460163		0.639402191
F		4.118793046		3.125251073		2.467114352
F		-0.001525963		1.79214061		0.195730399
