12
-186.39349496
Al		-0.070786357		1.645738996		2.136842804
Al		2.530799904		2.616488321		1.770683815
Al		1.362863508		2.675420616		-0.655854998
F		1.007381026		3.086257256		2.850111583
F		-1.587178619		2.665743618		2.193520258
F		-0.507232495		-0.007612378		2.756665334
F		1.819323641		0.876312153		1.935591625
F		2.946833441		1.836999757		-0.069731632
F		1.084305809		3.032496245		-2.406844804
F		1.739271342		4.015472859		0.639606995
F		4.119048984		3.125244089		2.467353164
F		-0.001262175		1.79185581		0.195207525
