12
-186.39349496
Al		-0.070675353		1.645816612		2.136555385
Al		2.530884901		2.616634435		1.77076135
Al		1.362933974		2.675591804		-0.655992769
F		1.007477208		3.086152111		2.850339438
F		-1.587317068		2.665446807		2.193789306
F		-0.507453136		-0.007318911		2.75672657
F		1.819478583		0.876437443		1.93561599
F		2.94654838		1.836688068		-0.069684151
F		1.084254309		3.032460078		-2.407020882
F		1.739138474		4.015479207		0.639709397
F		4.119176953		3.125240597		2.46747257
F		-0.001130281		1.79171341		0.194946088
