12
-186.39349496
Al		-0.070342341		1.64604946		2.135693128
Al		2.531139892		2.617072777		1.770993955
Al		1.363145372		2.676105368		-0.656406082
F		1.007765754		3.085836676		2.851023003
F		-1.587732415		2.664556374		2.19459645
F		-0.508115059		-0.00643851		2.756910278
F		1.819943409		0.876813313		1.935689085
F		2.945693197		1.835753001		-0.069541708
F		1.084099809		3.032351577		-2.407549116
F		1.73873987		4.015498251		0.640016603
F		4.11956086		3.125230121		2.467830788
F		-0.000734599		1.79128621		0.194161777
