12
-186.39349496
Al		-0.070120333		1.646204692		2.13511829
Al		2.531309886		2.617365005		1.771149025
Al		1.363286304		2.676447744		-0.656681624
F		1.007958118		3.085626386		2.851478713
F		-1.588009313		2.663962752		2.195134546
F		-0.508556341		-0.005851576		2.75703275
F		1.820253293		0.877063893		1.935737815
F		2.945123075		1.835129623		-0.069446746
F		1.083996809		3.032279243		-2.407901272
F		1.738474134		4.015510947		0.640221407
F		4.119816798		3.125223137		2.4680696
F		-0.000470811		1.79100141		0.193638903
