12
-186.39349496
Al		-0.070009329		1.646282308		2.134830871
Al		2.531394883		2.617511119		1.77122656
Al		1.36335677		2.676618932		-0.656819395
F		1.0080543		3.085521241		2.851706568
F		-1.588147762		2.663665941		2.195403594
F		-0.508776982		-0.005558109		2.757093986
F		1.820408235		0.877189183		1.93576218
F		2.944838014		1.834817934		-0.069399265
F		1.083945309		3.032243076		-2.40807735
F		1.738341266		4.015517295		0.640323809
F		4.119944767		3.125219645		2.468189006
F		-0.000338917		1.79085901		0.193377466
