12
-186.39349496
Al		-0.069898325		1.646359924		2.134543452
Al		2.53147988		2.617657233		1.771304095
Al		1.363427236		2.67679012		-0.656957166
F		1.008150482		3.085416096		2.851934423
F		-1.588286211		2.66336913		2.195672642
F		-0.508997623		-0.005264642		2.757155222
F		1.820563177		0.877314473		1.935786545
F		2.944552953		1.834506245		-0.069351784
F		1.083893809		3.032206909		-2.408253428
F		1.738208398		4.015523643		0.640426211
F		4.120072736		3.125216153		2.468308412
F		-0.000207023		1.79071661		0.193116029
