12
-186.39349496
Al		-0.069787321		1.64643754		2.134256033
Al		2.531564877		2.617803347		1.77138163
Al		1.363497702		2.676961308		-0.657094937
F		1.008246664		3.085310951		2.852162278
F		-1.58842466		2.663072319		2.19594169
F		-0.509218264		-0.004971175		2.757216458
F		1.820718119		0.877439763		1.93581091
F		2.944267892		1.834194556		-0.069304303
F		1.083842309		3.032170742		-2.408429506
F		1.73807553		4.015529991		0.640528613
F		4.120200705		3.125212661		2.468427818
F		-7.5129e-05		1.79057421		0.192854592
