12
-186.39349496
Al		-0.069454309		1.646670388		2.133393776
Al		2.531819868		2.618241689		1.771614235
Al		1.3637091		2.677474872		-0.65750825
F		1.00853521		3.084995516		2.852845843
F		-1.588840007		2.662181886		2.196748834
F		-0.509880187		-0.004090774		2.757400166
F		1.821182945		0.877815633		1.935884005
F		2.943412709		1.833259489		-0.06916186
F		1.083687809		3.032062241		-2.40895774
F		1.737676926		4.015549035		0.640835819
F		4.120584612		3.125202185		2.468786036
F		0.000320553		1.79014701		0.192070281
