12
-186.39349496
Al		-0.069010293		1.646980852		2.1322441
Al		2.532159856		2.618826145		1.771924375
Al		1.363990964		2.678159624		-0.658059334
F		1.008919938		3.084574936		2.853757263
F		-1.589393803		2.660994642		2.197825026
F		-0.510762751		-0.002916906		2.75764511
F		1.821802713		0.878316793		1.935981465
F		2.942272465		1.832012733		-0.068971936
F		1.083481809		3.031917573		-2.409662052
F		1.737145454		4.015574427		0.641245427
F		4.121096488		3.125188217		2.46926366
F		0.000848129		1.78957741		0.191024533
