12
-186.39349496
Al		-0.068899289		1.647058468		2.131956681
Al		2.532244853		2.618972259		1.77200191
Al		1.36406143		2.678330812		-0.658197105
F		1.00901612		3.084469791		2.853985118
F		-1.589532252		2.660697831		2.198094074
F		-0.510983392		-0.002623439		2.757706346
F		1.821957655		0.878442083		1.93600583
F		2.941987404		1.831701044		-0.068924455
F		1.083430309		3.031881406		-2.40983813
F		1.737012586		4.015580775		0.641347829
F		4.121224457		3.125184725		2.469383066
F		0.000980023		1.78943501		0.190763096
