12
-186.39349496
Al		-0.068677281		1.6472137		2.131381843
Al		2.532414847		2.619264487		1.77215698
Al		1.364202362		2.678673188		-0.658472647
F		1.009208484		3.084259501		2.854440828
F		-1.58980915		2.660104209		2.19863217
F		-0.511424674		-0.002036505		2.757828818
F		1.822267539		0.878692663		1.93605456
F		2.941417282		1.831077666		-0.068829493
F		1.083327309		3.031809072		-2.410190286
F		1.73674685		4.015593471		0.641552633
F		4.121480395		3.125177741		2.469621878
F		0.001243811		1.78915021		0.190240222
