12
-186.39349496
Al		-0.068233265		1.647524164		2.130232167
Al		2.532754835		2.619848943		1.77246712
Al		1.364484226		2.67935794		-0.659023731
F		1.009593212		3.083838921		2.855352248
F		-1.590362946		2.658916965		2.199708362
F		-0.512307238		-0.000862637		2.758073762
F		1.822887307		0.879193823		1.93615202
F		2.940277038		1.82983091		-0.068639569
F		1.083121309		3.031664404		-2.410894598
F		1.736215378		4.015618863		0.641962241
F		4.121992271		3.125163773		2.470099502
F		0.001771387		1.78858061		0.189194474
