12
-186.39349496
Al		-0.067789249		1.647834628		2.129082491
Al		2.533094823		2.620433399		1.77277726
Al		1.36476609		2.680042692		-0.659574815
F		1.00997794		3.083418341		2.856263668
F		-1.590916742		2.657729721		2.200784554
F		-0.513189802		0.000311231		2.758318706
F		1.823507075		0.879694983		1.93624948
F		2.939136794		1.828584154		-0.068449645
F		1.082915309		3.031519736		-2.41159891
F		1.735683906		4.015644255		0.642371849
F		4.122504147		3.125149805		2.470577126
F		0.002298963		1.78801101		0.188148726
