12
-186.39349496
Al		-0.067567241		1.64798986		2.128507653
Al		2.533264817		2.620725627		1.77293233
Al		1.364907022		2.680385068		-0.659850357
F		1.010170304		3.083208051		2.856719378
F		-1.59119364		2.657136099		2.20132265
F		-0.513631084		0.000898165		2.758441178
F		1.823816959		0.879945563		1.93629821
F		2.938566672		1.827960776		-0.068354683
F		1.082812309		3.031447402		-2.411951066
F		1.73541817		4.015656951		0.642576653
F		4.122760085		3.125142821		2.470815938
F		0.002562751		1.78772621		0.187625852
