12
-186.39349496
Al		-0.067345233		1.648145092		2.127932815
Al		2.533434811		2.621017855		1.7730874
Al		1.365047954		2.680727444		-0.660125899
F		1.010362668		3.082997761		2.857175088
F		-1.591470538		2.656542477		2.201860746
F		-0.514072366		0.001485099		2.75856365
F		1.824126843		0.880196143		1.93634694
F		2.93799655		1.827337398		-0.068259721
F		1.082709309		3.031375068		-2.412303222
F		1.735152434		4.015669647		0.642781457
F		4.123016023		3.125135837		2.47105475
F		0.002826539		1.78744141		0.187102978
