12
-186.39349496
Al		-0.067234229		1.648222708		2.127645396
Al		2.533519808		2.621163969		1.773164935
Al		1.36511842		2.680898632		-0.66026367
F		1.01045885		3.082892616		2.857402943
F		-1.591608987		2.656245666		2.202129794
F		-0.514293007		0.001778566		2.758624886
F		1.824281785		0.880321433		1.936371305
F		2.937711489		1.827025709		-0.06821224
F		1.082657809		3.031338901		-2.4124793
F		1.735019566		4.015675995		0.642883859
F		4.123143992		3.125132345		2.471174156
F		0.002958433		1.78729901		0.186841541
