12
-186.35103317
Al		-1.70208133		2.557383418		-1.231897326
Al		-0.530344005		0.000463572		-2.346964086
Al		-2.200420973		-0.339338751		-0.51437408
F		-0.755789345		3.679713916		-0.161417307
F		-3.018606791		3.173897986		-2.317358758
F		-1.37796586		-1.674846651		-1.72127238
F		-2.526545206		1.449386654		0.053494022
F		-3.250101746		-1.297287289		0.605286994
F		0.622799386		-0.509287185		-3.644481137
F		-0.33514846		1.89525934		-2.351144697
F		-2.453906458		0.474874796		-2.303193731
F		-0.301660856		0.157021859		-0.400744946
