12
-186.35103317
Al		-1.702303044		2.5570791		-1.232155806
Al		-0.530187795		0.000458244		-2.346892506
Al		-2.200332971		-0.339357957		-0.514227654
F		-0.755536555		3.678789486		-0.161358343
F		-3.018822425		3.173529666		-2.317623564
F		-1.378071148		-1.674823207		-1.721363984
F		-2.52663141		1.44934443		0.05353132
F		-3.25053541		-1.296395711		0.605730814
F		0.62302417		-0.508261635		-3.644759835
F		-0.335113778		1.895241712		-2.351240047
F		-2.453754812		0.474952126		-2.303041193
F		-0.301510778		0.156748425		-0.400658878
