12
-186.35103317
Al		-1.703079043		2.556013987		-1.233060486
Al		-0.52964106		0.000439596		-2.346641976
Al		-2.200024964		-0.339425178		-0.513715163
F		-0.75465179		3.675553981		-0.161151969
F		-3.019577144		3.172240546		-2.318550385
F		-1.378439656		-1.674741153		-1.721684598
F		-2.526933124		1.449196646		0.053661863
F		-3.252053234		-1.293275188		0.607284184
F		0.623810914		-0.50467221		-3.645735278
F		-0.334992391		1.895180014		-2.351573772
F		-2.453224051		0.475222781		-2.30250731
F		-0.300985505		0.155791406		-0.40035764
