12
-186.35103317
Al		-1.703300757		2.555709669		-1.233318966
Al		-0.52948485		0.000434268		-2.346570396
Al		-2.199936962		-0.339444384		-0.513568737
F		-0.754399		3.674629551		-0.161093005
F		-3.019792778		3.171872226		-2.318815191
F		-1.378544944		-1.674717709		-1.721776202
F		-2.527019328		1.449154422		0.053699161
F		-3.252486898		-1.29238361		0.607728004
F		0.624035698		-0.50364666		-3.646013976
F		-0.334957709		1.895162386		-2.351669122
F		-2.453072405		0.475300111		-2.302354772
F		-0.300835427		0.155517972		-0.400271572
