12
-186.35103317
Al		-1.703633328		2.555253192		-1.233706686
Al		-0.529250535		0.000426276		-2.346463026
Al		-2.199804959		-0.339473193		-0.513349098
F		-0.754019815		3.673242906		-0.161004559
F		-3.020116229		3.171319746		-2.3192124
F		-1.378702876		-1.674682543		-1.721913608
F		-2.527148634		1.449091086		0.053755108
F		-3.253137394		-1.291046243		0.608393734
F		0.624372874		-0.502108335		-3.646432023
F		-0.334905686		1.895135944		-2.351812147
F		-2.452844936		0.475416106		-2.302125965
F		-0.30061031		0.155107821		-0.40014247
