12
-186.35103317
Al		-1.70097276		2.558905008		-1.230604926
Al		-0.531125055		0.000490212		-2.347321986
Al		-2.200860983		-0.339242721		-0.51510621
F		-0.757053295		3.684336066		-0.161712127
F		-3.017528621		3.175739586		-2.316034728
F		-1.37743942		-1.674963871		-1.72081436
F		-2.526114186		1.449597774		0.053307532
F		-3.247933426		-1.301745179		0.603067894
F		0.621675466		-0.514414935		-3.643087647
F		-0.33532187		1.89534748		-2.350667947
F		-2.454664688		0.474488146		-2.303956421
F		-0.302411246		0.158389029		-0.401175286
