12
-186.35103317
Al		-1.704409327		2.554188079		-1.234611366
Al		-0.5287038		0.000407628		-2.346212496
Al		-2.199496952		-0.339540414		-0.512836607
F		-0.75313505		3.670007401		-0.160798185
F		-3.020870948		3.170030626		-2.320139221
F		-1.379071384		-1.674600489		-1.722234222
F		-2.527450348		1.448943302		0.053885651
F		-3.254655218		-1.28792572		0.609947104
F		0.625159618		-0.49851891		-3.647407466
F		-0.334784299		1.895074246		-2.352145872
F		-2.452314175		0.475686761		-2.301592082
F		-0.300085037		0.154150802		-0.399841232
