12
-186.35103317
Al		-1.704963612		2.553427284		-1.235257566
Al		-0.528313275		0.000394308		-2.346033546
Al		-2.199276947		-0.339588429		-0.512470542
F		-0.752503075		3.667696326		-0.160650775
F		-3.021410033		3.169109826		-2.320801236
F		-1.379334604		-1.674541879		-1.722463232
F		-2.527665858		1.448837742		0.053978896
F		-3.255739378		-1.285696775		0.611056654
F		0.625721578		-0.495955035		-3.648104211
F		-0.334697594		1.895030176		-2.352384247
F		-2.45193506		0.475880086		-2.301210737
F		-0.299709842		0.153467217		-0.399626062
