12
-186.35103317
Al		-1.705296183		2.552970807		-1.235645286
Al		-0.52807896		0.000386316		-2.345926176
Al		-2.199144944		-0.339617238		-0.512250903
F		-0.75212389		3.666309681		-0.160562329
F		-3.021733484		3.168557346		-2.321198445
F		-1.379492536		-1.674506713		-1.722600638
F		-2.527795164		1.448774406		0.054034843
F		-3.256389874		-1.284359408		0.611722384
F		0.626058754		-0.49441671		-3.648522258
F		-0.334645571		1.895003734		-2.352527272
F		-2.451707591		0.475996081		-2.30098193
F		-0.299484725		0.153057066		-0.39949696
