12
-186.35103317
Al		-1.705739611		2.552362171		-1.236162246
Al		-0.52776654		0.00037566		-2.345783016
Al		-2.19896894		-0.33965565		-0.511958051
F		-0.75161831		3.664460821		-0.160444401
F		-3.022164752		3.167820706		-2.321728057
F		-1.379703112		-1.674459825		-1.722783846
F		-2.527967572		1.448689958		0.054109439
F		-3.257257202		-1.282576252		0.612610024
F		0.626508322		-0.49236561		-3.649079654
F		-0.334576207		1.894968478		-2.352717972
F		-2.451404299		0.476150741		-2.300676854
F		-0.299184569		0.152510198		-0.399324824
