12
-186.35103317
Al		-1.706072182		2.551905694		-1.236549966
Al		-0.527532225		0.000367668		-2.345675646
Al		-2.198836937		-0.339684459		-0.511738412
F		-0.751239125		3.663074176		-0.160355955
F		-3.022488203		3.167268226		-2.322125266
F		-1.379861044		-1.674424659		-1.722921252
F		-2.528096878		1.448626622		0.054165386
F		-3.257907698		-1.281238885		0.613275754
F		0.626845498		-0.490827285		-3.649497701
F		-0.334524184		1.894942036		-2.352860997
F		-2.45117683		0.476266736		-2.300448047
F		-0.298959452		0.152100047		-0.399195722
