12
-186.35103317
Al		-1.701194474		2.55860069		-1.230863406
Al		-0.530968845		0.000484884		-2.347250406
Al		-2.200772981		-0.339261927		-0.514959784
F		-0.756800505		3.683411636		-0.161653163
F		-3.017744255		3.175371266		-2.316299534
F		-1.377544708		-1.674940427		-1.720905964
F		-2.52620039		1.44955555		0.05334483
F		-3.24836709		-1.300853601		0.603511714
F		0.62190025		-0.513389385		-3.643366345
F		-0.335287188		1.895329852		-2.350763297
F		-2.454513042		0.474565476		-2.303803883
F		-0.302261168		0.158115595		-0.401089218
