12
-186.35103317
Al		-1.70651561		2.551297058		-1.237066926
Al		-0.527219805		0.000357012		-2.345532486
Al		-2.198660933		-0.339722871		-0.51144556
F		-0.750733545		3.661225316		-0.160238027
F		-3.022919471		3.166531586		-2.322654878
F		-1.38007162		-1.674377771		-1.72310446
F		-2.528269286		1.448542174		0.054239982
F		-3.258775026		-1.279455729		0.614163394
F		0.627295066		-0.488776185		-3.650055097
F		-0.33445482		1.89490678		-2.353051697
F		-2.450873538		0.476421396		-2.300142971
F		-0.298659296		0.151553179		-0.399023586
