12
-186.35103317
Al		-1.706737324		2.55099274		-1.237325406
Al		-0.527063595		0.000351684		-2.345460906
Al		-2.198572931		-0.339742077		-0.511299134
F		-0.750480755		3.660300886		-0.160179063
F		-3.023135105		3.166163266		-2.322919684
F		-1.380176908		-1.674354327		-1.723196064
F		-2.52835549		1.44849995		0.05427728
F		-3.25920869		-1.278564151		0.614607214
F		0.62751985		-0.487750635		-3.650333795
F		-0.334420138		1.894889152		-2.353147047
F		-2.450721892		0.476498726		-2.299990433
F		-0.298509218		0.151279745		-0.398937518
