12
-186.35103317
Al		-1.707402466		2.550079786		-1.238100846
Al		-0.526594965		0.0003357		-2.345246166
Al		-2.198308925		-0.339799695		-0.510859856
F		-0.749722385		3.657527596		-0.160002171
F		-3.023782007		3.165058306		-2.323714102
F		-1.380492772		-1.674283995		-1.723470876
F		-2.528614102		1.448373278		0.054389174
F		-3.260509682		-1.275889417		0.615938674
F		0.628194202		-0.484673985		-3.651169889
F		-0.334316092		1.894836268		-2.353433097
F		-2.450266954		0.476730716		-2.299532819
F		-0.298058984		0.150459443		-0.398679314
