12
-186.35103317
Al		-1.70762418		2.549775468		-1.238359326
Al		-0.526438755		0.000330372		-2.345174586
Al		-2.198220923		-0.339818901		-0.51071343
F		-0.749469595		3.656603166		-0.159943207
F		-3.023997641		3.164689986		-2.323978908
F		-1.38059806		-1.674260551		-1.72356248
F		-2.528700306		1.448331054		0.054426472
F		-3.260943346		-1.274997839		0.616382494
F		0.628418986		-0.483648435		-3.651448587
F		-0.33428141		1.89481864		-2.353528447
F		-2.450115308		0.476808046		-2.299380281
F		-0.297908906		0.150186009		-0.398593246
