12
-186.35103317
Al		-1.707735037		2.549623309		-1.238488566
Al		-0.52636065		0.000327708		-2.345138796
Al		-2.198176922		-0.339828504		-0.510640217
F		-0.7493432		3.656140951		-0.159913725
F		-3.024105458		3.164505826		-2.324111311
F		-1.380650704		-1.674248829		-1.723608282
F		-2.528743408		1.448309942		0.054445121
F		-3.261160178		-1.27455205		0.616604404
F		0.628531378		-0.48313566		-3.651587936
F		-0.334264069		1.894809826		-2.353576122
F		-2.450039485		0.476846711		-2.299304012
F		-0.297833867		0.150049292		-0.398550212
