12
-186.35103317
Al		-1.707845894		2.54947115		-1.238617806
Al		-0.526282545		0.000325044		-2.345103006
Al		-2.198132921		-0.339838107		-0.510567004
F		-0.749216805		3.655678736		-0.159884243
F		-3.024213275		3.164321666		-2.324243714
F		-1.380703348		-1.674237107		-1.723654084
F		-2.52878651		1.44828883		0.05446377
F		-3.26137701		-1.274106261		0.616826314
F		0.62864377		-0.482622885		-3.651727285
F		-0.334246728		1.894801012		-2.353623797
F		-2.449963662		0.476885376		-2.299227743
F		-0.297758828		0.149912575		-0.398507178
