12
-186.35103317
Al		-1.707956751		2.549318991		-1.238747046
Al		-0.52620444		0.00032238		-2.345067216
Al		-2.19808892		-0.33984771		-0.510493791
F		-0.74909041		3.655216521		-0.159854761
F		-3.024321092		3.164137506		-2.324376117
F		-1.380755992		-1.674225385		-1.723699886
F		-2.528829612		1.448267718		0.054482419
F		-3.261593842		-1.273660472		0.617048224
F		0.628756162		-0.48211011		-3.651866634
F		-0.334229387		1.894792198		-2.353671472
F		-2.449887839		0.476924041		-2.299151474
F		-0.297683789		0.149775858		-0.398464144
