12
-186.35103317
Al		-1.701416188		2.558296372		-1.231121886
Al		-0.530812635		0.000479556		-2.347178826
Al		-2.200684979		-0.339281133		-0.514813358
F		-0.756547715		3.682487206		-0.161594199
F		-3.017959889		3.175002946		-2.31656434
F		-1.377649996		-1.674916983		-1.720997568
F		-2.526286594		1.449513326		0.053382128
F		-3.248800754		-1.299962023		0.603955534
F		0.622125034		-0.512363835		-3.643645043
F		-0.335252506		1.895312224		-2.350858647
F		-2.454361396		0.474642806		-2.303651345
F		-0.30211109		0.157842161		-0.40100315
