12
-186.35103317
Al		-1.708400179		2.548710355		-1.239264006
Al		-0.52589202		0.000311724		-2.344924056
Al		-2.197912916		-0.339886122		-0.510200939
F		-0.74858483		3.653367661		-0.159736833
F		-3.02475236		3.163400866		-2.324905729
F		-1.380966568		-1.674178497		-1.723883094
F		-2.52900202		1.44818327		0.054557015
F		-3.26246117		-1.271877316		0.617935864
F		0.62920573		-0.48005901		-3.65242403
F		-0.334160023		1.894756942		-2.353862172
F		-2.449584547		0.477078701		-2.298846398
F		-0.297383633		0.14922899		-0.398292008
