12
-186.35103317
Al		-1.708621893		2.548406037		-1.239522486
Al		-0.52573581		0.000306396		-2.344852476
Al		-2.197824914		-0.339905328		-0.510054513
F		-0.74833204		3.652443231		-0.159677869
F		-3.024967994		3.163032546		-2.325170535
F		-1.381071856		-1.674155053		-1.723974698
F		-2.529088224		1.448141046		0.054594313
F		-3.262894834		-1.270985738		0.618379684
F		0.629430514		-0.47903346		-3.652702728
F		-0.334125341		1.894739314		-2.353957522
F		-2.449432901		0.477156031		-2.29869386
F		-0.297233555		0.148955556		-0.39820594
