12
-186.35103317
Al		-1.708843607		2.548101719		-1.239780966
Al		-0.5255796		0.000301068		-2.344780896
Al		-2.197736912		-0.339924534		-0.509908087
F		-0.74807925		3.651518801		-0.159618905
F		-3.025183628		3.162664226		-2.325435341
F		-1.381177144		-1.674131609		-1.724066302
F		-2.529174428		1.448098822		0.054631611
F		-3.263328498		-1.27009416		0.618823504
F		0.629655298		-0.47800791		-3.652981426
F		-0.334090659		1.894721686		-2.354052872
F		-2.449281255		0.477233361		-2.298541322
F		-0.297083477		0.148682122		-0.398119872
