12
-186.35103317
Al		-1.709176178		2.547645242		-1.240168686
Al		-0.525345285		0.000293076		-2.344673526
Al		-2.197604909		-0.339953343		-0.509688448
F		-0.747700065		3.650132156		-0.159530459
F		-3.025507079		3.162111746		-2.32583255
F		-1.381335076		-1.674096443		-1.724203708
F		-2.529303734		1.448035486		0.054687558
F		-3.263978994		-1.268756793		0.619489234
F		0.629992474		-0.476469585		-3.653399473
F		-0.334038636		1.894695244		-2.354195897
F		-2.449053786		0.477349356		-2.298312515
F		-0.29685836		0.148271971		-0.39799077
