12
-186.35103317
Al		-1.709619606		2.547036606		-1.240685646
Al		-0.525032865		0.00028242		-2.344530366
Al		-2.197428905		-0.339991755		-0.509395596
F		-0.747194485		3.648283296		-0.159412531
F		-3.025938347		3.161375106		-2.326362162
F		-1.381545652		-1.674049555		-1.724386916
F		-2.529476142		1.447951038		0.054762154
F		-3.264846322		-1.266973637		0.620376874
F		0.630442042		-0.474418485		-3.653956869
F		-0.333969272		1.894659988		-2.354386597
F		-2.448750494		0.477504016		-2.298007439
F		-0.296558204		0.147725103		-0.397818634
