12
-186.35103317
Al		-1.710173891		2.546275811		-1.241331846
Al		-0.52464234		0.0002691		-2.344351416
Al		-2.1972089		-0.34003977		-0.509029531
F		-0.74656251		3.645972221		-0.159265121
F		-3.026477432		3.160454306		-2.327024177
F		-1.381808872		-1.673990945		-1.724615926
F		-2.529691652		1.447845478		0.054855399
F		-3.265930482		-1.264744692		0.621486424
F		0.631004002		-0.47185461		-3.654653614
F		-0.333882567		1.894615918		-2.354624972
F		-2.448371379		0.477697341		-2.297626094
F		-0.296183009		0.147041518		-0.397603464
