12
-186.35103317
Al		-1.710284748		2.546123652		-1.241461086
Al		-0.524564235		0.000266436		-2.344315626
Al		-2.197164899		-0.340049373		-0.508956318
F		-0.746436115		3.645510006		-0.159235639
F		-3.026585249		3.160270146		-2.32715658
F		-1.381861516		-1.673979223		-1.724661728
F		-2.529734754		1.447824366		0.054874048
F		-3.266147314		-1.264298903		0.621708334
F		0.631116394		-0.471341835		-3.654792963
F		-0.333865226		1.894607104		-2.354672647
F		-2.448295556		0.477736006		-2.297549825
F		-0.29610797		0.146904801		-0.39756043
