12
-186.35103317
Al		-1.710506462		2.545819334		-1.241719566
Al		-0.524408025		0.000261108		-2.344244046
Al		-2.197076897		-0.340068579		-0.508809892
F		-0.746183325		3.644585576		-0.159176675
F		-3.026800883		3.159901826		-2.327421386
F		-1.381966804		-1.673955779		-1.724753332
F		-2.529820958		1.447782142		0.054911346
F		-3.266580978		-1.263407325		0.622152154
F		0.631341178		-0.470316285		-3.655071661
F		-0.333830544		1.894589476		-2.354767997
F		-2.44814391		0.477813336		-2.297397287
F		-0.295957892		0.146631367		-0.397474362
