12
-186.35103317
Al		-1.710617319		2.545667175		-1.241848806
Al		-0.52432992		0.000258444		-2.344208256
Al		-2.197032896		-0.340078182		-0.508736679
F		-0.74605693		3.644123361		-0.159147193
F		-3.0269087		3.159717666		-2.327553789
F		-1.382019448		-1.673944057		-1.724799134
F		-2.52986406		1.44776103		0.054929995
F		-3.26679781		-1.262961536		0.622374064
F		0.63145357		-0.46980351		-3.65521101
F		-0.333813203		1.894580662		-2.354815672
F		-2.448068087		0.477852001		-2.297321018
F		-0.295882853		0.14649465		-0.397431328
