12
-186.35103317
Al		-1.710728176		2.545515016		-1.241978046
Al		-0.524251815		0.00025578		-2.344172466
Al		-2.196988895		-0.340087785		-0.508663466
F		-0.745930535		3.643661146		-0.159117711
F		-3.027016517		3.159533506		-2.327686192
F		-1.382072092		-1.673932335		-1.724844936
F		-2.529907162		1.447739918		0.054948644
F		-3.267014642		-1.262515747		0.622595974
F		0.631565962		-0.469290735		-3.655350359
F		-0.333795862		1.894571848		-2.354863347
F		-2.447992264		0.477890666		-2.297244749
F		-0.295807814		0.146357933		-0.397388294
