12
-186.35103317
Al		-1.71094989		2.545210698		-1.242236526
Al		-0.524095605		0.000250452		-2.344100886
Al		-2.196900893		-0.340106991		-0.50851704
F		-0.745677745		3.642736716		-0.159058747
F		-3.027232151		3.159165186		-2.327950998
F		-1.38217738		-1.673908891		-1.72493654
F		-2.529993366		1.447697694		0.054985942
F		-3.267448306		-1.261624169		0.623039794
F		0.631790746		-0.468265185		-3.655629057
F		-0.33376118		1.89455422		-2.354958697
F		-2.447840618		0.477967996		-2.297092211
F		-0.295657736		0.146084499		-0.397302226
