12
-186.35103317
Al		-1.711060747		2.545058539		-1.242365766
Al		-0.5240175		0.000247788		-2.344065096
Al		-2.196856892		-0.340116594		-0.508443827
F		-0.74555135		3.642274501		-0.159029265
F		-3.027339968		3.158981026		-2.328083401
F		-1.382230024		-1.673897169		-1.724982342
F		-2.530036468		1.447676582		0.055004591
F		-3.267665138		-1.26117838		0.623261704
F		0.631903138		-0.46775241		-3.655768406
F		-0.333743839		1.894545406		-2.355006372
F		-2.447764795		0.478006661		-2.297015942
F		-0.295582697		0.145947782		-0.397259192
