12
-186.35103317
Al		-1.711171604		2.54490638		-1.242495006
Al		-0.523939395		0.000245124		-2.344029306
Al		-2.196812891		-0.340126197		-0.508370614
F		-0.745424955		3.641812286		-0.158999783
F		-3.027447785		3.158796866		-2.328215804
F		-1.382282668		-1.673885447		-1.725028144
F		-2.53007957		1.44765547		0.05502324
F		-3.26788197		-1.260732591		0.623483614
F		0.63201553		-0.467239635		-3.655907755
F		-0.333726498		1.894536592		-2.355054047
F		-2.447688972		0.478045326		-2.296939673
F		-0.295507658		0.145811065		-0.397216158
