12
-186.35103317
Al		-1.711282461		2.544754221		-1.242624246
Al		-0.52386129		0.00024246		-2.343993516
Al		-2.19676889		-0.3401358		-0.508297401
F		-0.74529856		3.641350071		-0.158970301
F		-3.027555602		3.158612706		-2.328348207
F		-1.382335312		-1.673873725		-1.725073946
F		-2.530122672		1.447634358		0.055041889
F		-3.268098802		-1.260286802		0.623705524
F		0.632127922		-0.46672686		-3.656047104
F		-0.333709157		1.894527778		-2.355101722
F		-2.447613149		0.478083991		-2.296863404
F		-0.295432619		0.145674348		-0.397173124
