12
-186.35103317
Al		-1.711393318		2.544602062		-1.242753486
Al		-0.523783185		0.000239796		-2.343957726
Al		-2.196724889		-0.340145403		-0.508224188
F		-0.745172165		3.640887856		-0.158940819
F		-3.027663419		3.158428546		-2.32848061
F		-1.382387956		-1.673862003		-1.725119748
F		-2.530165774		1.447613246		0.055060538
F		-3.268315634		-1.259841013		0.623927434
F		0.632240314		-0.466214085		-3.656186453
F		-0.333691816		1.894518964		-2.355149397
F		-2.447537326		0.478122656		-2.296787135
F		-0.29535758		0.145537631		-0.39713009
