12
-186.35103317
Al		-1.699531619		2.560883075		-1.228924806
Al		-0.53214042		0.000524844		-2.347787256
Al		-2.201432996		-0.339117882		-0.516057979
F		-0.75869643		3.690344861		-0.162095393
F		-3.016127		3.178133666		-2.314313489
F		-1.376755048		-1.675116257		-1.720218934
F		-2.52555386		1.44987223		0.053065095
F		-3.24511461		-1.307540436		0.600183064
F		0.62021437		-0.52108101		-3.64127611
F		-0.335547303		1.895462062		-2.350048172
F		-2.455650387		0.473985501		-2.304947918
F		-0.303386753		0.16016635		-0.401734728
