12
-186.35103317
Al		-1.698644763		2.562100347		-1.227890886
Al		-0.53276526		0.000546156		-2.348073576
Al		-2.201785004		-0.339041058		-0.516643683
F		-0.75970759		3.694042581		-0.162331249
F		-3.015264464		3.179606946		-2.313254265
F		-1.376333896		-1.675210033		-1.719852518
F		-2.525209044		1.450041126		0.052915903
F		-3.243379954		-1.311106748		0.598407784
F		0.619315234		-0.52518321		-3.640161318
F		-0.335686031		1.895532574		-2.349666772
F		-2.456256971		0.473676181		-2.30555807
F		-0.303987065		0.161260086		-0.402079
