12
-186.35103317
Al		-1.698312192		2.562556824		-1.227503166
Al		-0.532999575		0.000554148		-2.348180946
Al		-2.201917007		-0.339012249		-0.516863322
F		-0.760086775		3.695429226		-0.162419695
F		-3.014941013		3.180159426		-2.312857056
F		-1.376175964		-1.675245199		-1.719715112
F		-2.525079738		1.450104462		0.052859956
F		-3.242729458		-1.312444115		0.597742054
F		0.618978058		-0.526721535		-3.639743271
F		-0.335738054		1.895559016		-2.349523747
F		-2.45648444		0.473560186		-2.305786877
F		-0.304212182		0.161670237		-0.402208102
