12
-186.35103317
Al		-1.698201335		2.562708983		-1.227373926
Al		-0.53307768		0.000556812		-2.348216736
Al		-2.201961008		-0.339002646		-0.516936535
F		-0.76021317		3.695891441		-0.162449177
F		-3.014833196		3.180343586		-2.312724653
F		-1.37612332		-1.675256921		-1.71966931
F		-2.525036636		1.450125574		0.052841307
F		-3.242512626		-1.312889904		0.597520144
F		0.618865666		-0.52723431		-3.639603922
F		-0.335755395		1.89556783		-2.349476072
F		-2.456560263		0.473521521		-2.305863146
F		-0.304287221		0.161806954		-0.402251136
