12
-186.35103317
Al		-1.697757907		2.563317619		-1.226856966
Al		-0.5333901		0.000567468		-2.348359896
Al		-2.202137012		-0.338964234		-0.517229387
F		-0.76071875		3.697740301		-0.162567105
F		-3.014401928		3.181080226		-2.312195041
F		-1.375912744		-1.675303809		-1.719486102
F		-2.524864228		1.450210022		0.052766711
F		-3.241645298		-1.31467306		0.596632504
F		0.618416098		-0.52928541		-3.639046526
F		-0.335824759		1.895603086		-2.349285372
F		-2.456863555		0.473366861		-2.306168222
F		-0.304587377		0.162353822		-0.402423272
