12
-186.35103317
Al		-1.696649337		2.564839209		-1.225564566
Al		-0.53417115		0.000594108		-2.348717796
Al		-2.202577022		-0.338868204		-0.517961517
F		-0.7619827		3.702362451		-0.162861925
F		-3.013323758		3.182921826		-2.310871011
F		-1.375386304		-1.675421029		-1.719028082
F		-2.524433208		1.450421142		0.052580221
F		-3.239476978		-1.31913095		0.594413404
F		0.617292178		-0.53441316		-3.637653036
F		-0.335998169		1.895691226		-2.348808622
F		-2.457621785		0.472980211		-2.306930912
F		-0.305337767		0.163720992		-0.402853612
