12
-186.35103317
Al		-1.696427623		2.565143527		-1.225306086
Al		-0.53432736		0.000599436		-2.348789376
Al		-2.202665024		-0.338848998		-0.518107943
F		-0.76223549		3.703286881		-0.162920889
F		-3.013108124		3.183290146		-2.310606205
F		-1.375281016		-1.675444473		-1.718936478
F		-2.524347004		1.450463366		0.052542923
F		-3.239043314		-1.320022528		0.593969584
F		0.617067394		-0.53543871		-3.637374338
F		-0.336032851		1.895708854		-2.348713272
F		-2.457773431		0.472902881		-2.30708345
F		-0.305487845		0.163994426		-0.40293968
