12
-186.35103317
Al		-1.695540767		2.566360799		-1.224272166
Al		-0.5349522		0.000620748		-2.349075696
Al		-2.203017032		-0.338772174		-0.518693647
F		-0.76324665		3.706984601		-0.163156745
F		-3.012245588		3.184763426		-2.309546981
F		-1.374859864		-1.675538249		-1.718570062
F		-2.524002188		1.450632262		0.052393731
F		-3.237308658		-1.32358884		0.592194304
F		0.616168258		-0.53954091		-3.636259546
F		-0.336171579		1.895779366		-2.348331872
F		-2.458380015		0.472593561		-2.307693602
F		-0.306088157		0.165088162		-0.403283952
