12
-186.35103317
Al		-1.69542991		2.566512958		-1.224142926
Al		-0.535030305		0.000623412		-2.349111486
Al		-2.203061033		-0.338762571		-0.51876686
F		-0.763373045		3.707446816		-0.163186227
F		-3.012137771		3.184947586		-2.309414578
F		-1.37480722		-1.675549971		-1.71852426
F		-2.523959086		1.450653374		0.052375082
F		-3.237091826		-1.324034629		0.591972394
F		0.616055866		-0.540053685		-3.636120197
F		-0.33618892		1.89578818		-2.348284197
F		-2.458455838		0.472554896		-2.307769871
F		-0.306163196		0.165224879		-0.403326986
