12
-186.35103317
Al		-1.694875625		2.567273753		-1.223496726
Al		-0.53542083		0.000636732		-2.349290436
Al		-2.203281038		-0.338714556		-0.519132925
F		-0.76400502		3.709757891		-0.163333637
F		-3.011598686		3.185868386		-2.308752563
F		-1.374544		-1.675608581		-1.71829525
F		-2.523743576		1.450758934		0.052281837
F		-3.236007666		-1.326263574		0.590862844
F		0.615493906		-0.54261756		-3.635423452
F		-0.336275625		1.89583225		-2.348045822
F		-2.458834953		0.472361571		-2.308151216
F		-0.306538391		0.165908464		-0.403542156
