12
-186.35103317
Al		-1.694543054		2.56773023		-1.223109006
Al		-0.535655145		0.000644724		-2.349397806
Al		-2.203413041		-0.338685747		-0.519352564
F		-0.764384205		3.711144536		-0.163422083
F		-3.011275235		3.186420866		-2.308355354
F		-1.374386068		-1.675643747		-1.718157844
F		-2.52361427		1.45082227		0.05222589
F		-3.23535717		-1.327600941		0.590197114
F		0.61515673		-0.544155885		-3.635005405
F		-0.336327648		1.895858692		-2.347902797
F		-2.459062422		0.472245576		-2.308380023
F		-0.306763508		0.166318615		-0.403671258
