12
-186.35103317
Al		-1.693988769		2.568491025		-1.222462806
Al		-0.53604567		0.000658044		-2.349576756
Al		-2.203633046		-0.338637732		-0.519718629
F		-0.76501618		3.713455611		-0.163569493
F		-3.01073615		3.187341666		-2.307693339
F		-1.374122848		-1.675702357		-1.717928834
F		-2.52339876		1.45092783		0.052132645
F		-3.23427301		-1.329829886		0.589087564
F		0.61459477		-0.54671976		-3.63430866
F		-0.336414353		1.895902762		-2.347664422
F		-2.459441537		0.472052251		-2.308761368
F		-0.307138703		0.1670022		-0.403886428
