12
-186.35103317
Al		-1.693877912		2.568643184		-1.222333566
Al		-0.536123775		0.000660708		-2.349612546
Al		-2.203677047		-0.338628129		-0.519791842
F		-0.765142575		3.713917826		-0.163598975
F		-3.010628333		3.187525826		-2.307560936
F		-1.374070204		-1.675714079		-1.717883032
F		-2.523355658		1.450948942		0.052113996
F		-3.234056178		-1.330275675		0.588865654
F		0.614482378		-0.547232535		-3.634169311
F		-0.336431694		1.895911576		-2.347616747
F		-2.45951736		0.472013586		-2.308837637
F		-0.307213742		0.167138917		-0.403929462
