12
-186.35103317
Al		-1.693767055		2.568795343		-1.222204326
Al		-0.53620188		0.000663372		-2.349648336
Al		-2.203721048		-0.338618526		-0.519865055
F		-0.76526897		3.714380041		-0.163628457
F		-3.010520516		3.187709986		-2.307428533
F		-1.37401756		-1.675725801		-1.71783723
F		-2.523312556		1.450970054		0.052095347
F		-3.233839346		-1.330721464		0.588643744
F		0.614369986		-0.54774531		-3.634029962
F		-0.336449035		1.89592039		-2.347569072
F		-2.459593183		0.471974921		-2.308913906
F		-0.307288781		0.167275634		-0.403972496
