12
-186.35103317
Al		-1.693656198		2.568947502		-1.222075086
Al		-0.536279985		0.000666036		-2.349684126
Al		-2.203765049		-0.338608923		-0.519938268
F		-0.765395365		3.714842256		-0.163657939
F		-3.010412699		3.187894146		-2.30729613
F		-1.373964916		-1.675737523		-1.717791428
F		-2.523269454		1.450991166		0.052076698
F		-3.233622514		-1.331167253		0.588421834
F		0.614257594		-0.548258085		-3.633890613
F		-0.336466376		1.895929204		-2.347521397
F		-2.459669006		0.471936256		-2.308990175
F		-0.30736382		0.167412351		-0.40401553
