12
-186.35103317
Al		-1.693434484		2.56925182		-1.221816606
Al		-0.536436195		0.000671364		-2.349755706
Al		-2.203853051		-0.338589717		-0.520084694
F		-0.765648155		3.715766686		-0.163716903
F		-3.010197065		3.188262466		-2.307031324
F		-1.373859628		-1.675760967		-1.717699824
F		-2.52318325		1.45103339		0.0520394
F		-3.23318885		-1.332058831		0.587978014
F		0.61403281		-0.549283635		-3.633611915
F		-0.336501058		1.895946832		-2.347426047
F		-2.459820652		0.471858926		-2.309142713
F		-0.307513898		0.167685785		-0.404101598
