12
-186.35103317
Al		-1.692658485		2.570316933		-1.220911926
Al		-0.53698293		0.000690012		-2.350006236
Al		-2.204161058		-0.338522496		-0.520597185
F		-0.76653292		3.719002191		-0.163923277
F		-3.009442346		3.189551586		-2.306104503
F		-1.37349112		-1.675843021		-1.71737921
F		-2.522881536		1.451181174		0.051908857
F		-3.231671026		-1.335179354		0.586424644
F		0.613246066		-0.55287306		-3.632636472
F		-0.336622445		1.89600853		-2.347092322
F		-2.460351413		0.471588271		-2.309676596
F		-0.308039171		0.168642804		-0.404402836
