12
-186.35103317
Al		-1.6921042		2.571077728		-1.220265726
Al		-0.537373455		0.000703332		-2.350185186
Al		-2.204381063		-0.338474481		-0.52096325
F		-0.767164895		3.721313266		-0.164070687
F		-3.008903261		3.190472386		-2.305442488
F		-1.3732279		-1.675901631		-1.7171502
F		-2.522666026		1.451286734		0.051815612
F		-3.230586866		-1.337408299		0.585315094
F		0.612684106		-0.555436935		-3.631939727
F		-0.33670915		1.8960526		-2.346853947
F		-2.460730528		0.471394946		-2.310057941
F		-0.308414366		0.169326389		-0.404618006
