12
-186.35103317
Al		-1.691660772		2.571686364		-1.219748766
Al		-0.537685875		0.000713988		-2.350328346
Al		-2.204557067		-0.338436069		-0.521256102
F		-0.767670475		3.723162126		-0.164188615
F		-3.008471993		3.191209026		-2.304912876
F		-1.373017324		-1.675948519		-1.716966992
F		-2.522493618		1.451371182		0.051741016
F		-3.229719538		-1.339191455		0.584427454
F		0.612234538		-0.557488035		-3.631382331
F		-0.336778514		1.896087856		-2.346663247
F		-2.46103382		0.471240286		-2.310363017
F		-0.308714522		0.169873257		-0.404790142
