12
-186.35103317
Al		-1.691549915		2.571838523		-1.219619526
Al		-0.53776398		0.000716652		-2.350364136
Al		-2.204601068		-0.338426466		-0.521329315
F		-0.76779687		3.723624341		-0.164218097
F		-3.008364176		3.191393186		-2.304780473
F		-1.37296468		-1.675960241		-1.71692119
F		-2.522450516		1.451392294		0.051722367
F		-3.229502706		-1.339637244		0.584205544
F		0.612122146		-0.55800081		-3.631242982
F		-0.336795855		1.89609667		-2.346615572
F		-2.461109643		0.471201621		-2.310439286
F		-0.308789561		0.170009974		-0.404833176
