12
-186.35103317
Al		-1.691439058		2.571990682		-1.219490286
Al		-0.537842085		0.000719316		-2.350399926
Al		-2.204645069		-0.338416863		-0.521402528
F		-0.767923265		3.724086556		-0.164247579
F		-3.008256359		3.191577346		-2.30464807
F		-1.372912036		-1.675971963		-1.716875388
F		-2.522407414		1.451413406		0.051703718
F		-3.229285874		-1.340083033		0.583983634
F		0.612009754		-0.558513585		-3.631103633
F		-0.336813196		1.896105484		-2.346567897
F		-2.461185466		0.471162956		-2.310515555
F		-0.3088646		0.170146691		-0.40487621
