12
-186.35103317
Al		-1.691217344		2.572295		-1.219231806
Al		-0.537998295		0.000724644		-2.350471506
Al		-2.204733071		-0.338397657		-0.521548954
F		-0.768176055		3.725010986		-0.164306543
F		-3.008040725		3.191945666		-2.304383264
F		-1.372806748		-1.675995407		-1.716783784
F		-2.52232121		1.45145563		0.05166642
F		-3.22885221		-1.340974611		0.583539814
F		0.61178497		-0.559539135		-3.630824935
F		-0.336847878		1.896123112		-2.346472547
F		-2.461337112		0.471085626		-2.310668093
F		-0.309014678		0.170420125		-0.404962278
