12
-186.35103317
Al		-1.69099563		2.572599318		-1.218973326
Al		-0.538154505		0.000729972		-2.350543086
Al		-2.204821073		-0.338378451		-0.52169538
F		-0.768428845		3.725935416		-0.164365507
F		-3.007825091		3.192313986		-2.304118458
F		-1.37270146		-1.676018851		-1.71669218
F		-2.522235006		1.451497854		0.051629122
F		-3.228418546		-1.341866189		0.583095994
F		0.611560186		-0.560564685		-3.630546237
F		-0.33688256		1.89614074		-2.346377197
F		-2.461488758		0.471008296		-2.310820631
F		-0.309164756		0.170693559		-0.405048346
