12
-186.35103317
Al		-1.690663059		2.573055795		-1.218585606
Al		-0.53838882		0.000737964		-2.350650456
Al		-2.204953076		-0.338349642		-0.521915019
F		-0.76880803		3.727322061		-0.164453953
F		-3.00750164		3.192866466		-2.303721249
F		-1.372543528		-1.676054017		-1.716554774
F		-2.5221057		1.45156119		0.051573175
F		-3.22776805		-1.343203556		0.582430264
F		0.61122301		-0.56210301		-3.63012819
F		-0.336934583		1.896167182		-2.346234172
F		-2.461716227		0.470892301		-2.311049438
F		-0.309389873		0.17110371		-0.405177448
