12
-186.35103317
Al		-1.690441345		2.573360113		-1.218327126
Al		-0.53854503		0.000743292		-2.350722036
Al		-2.205041078		-0.338330436		-0.522061445
F		-0.76906082		3.728246491		-0.164512917
F		-3.007286006		3.193234786		-2.303456443
F		-1.37243824		-1.676077461		-1.71646317
F		-2.522019496		1.451603414		0.051535877
F		-3.227334386		-1.344095134		0.581986444
F		0.610998226		-0.56312856		-3.629849492
F		-0.336969265		1.89618481		-2.346138822
F		-2.461867873		0.470814971		-2.311201976
F		-0.309539951		0.171377144		-0.405263516
