12
-186.35103317
Al		-1.690330488		2.573512272		-1.218197886
Al		-0.538623135		0.000745956		-2.350757826
Al		-2.205085079		-0.338320833		-0.522134658
F		-0.769187215		3.728708706		-0.164542399
F		-3.007178189		3.193418946		-2.30332404
F		-1.372385596		-1.676089183		-1.716417368
F		-2.521976394		1.451624526		0.051517228
F		-3.227117554		-1.344540923		0.581764534
F		0.610885834		-0.563641335		-3.629710143
F		-0.336986606		1.896193624		-2.346091147
F		-2.461943696		0.470776306		-2.311278245
F		-0.30961499		0.171513861		-0.40530655
