      12
SCF Done            -185.77283475
Al            0.325045372        -2.314955411        -1.936981661
Al            2.011236730        -0.548016056        -0.756062024
Al           -0.361233606         0.303093503        -1.743591883
F             3.582672888        -0.192809016         0.061360977
F            -0.077262374        -4.008487293        -2.428257436
F             2.138650438        -1.730609676        -2.317021389
F             1.507761495         0.722396339        -2.161364420
F            -1.530361622         1.641418331        -2.069739111
F            -1.141329886        -1.345859052        -1.052924969
F            -0.081263574        -0.934247109        -3.242276181
F             0.447695196         0.310784798         0.027986798
F             1.078584134        -2.142221210        -0.127670573
