      12
SCF Done            -166.35736729
Al           -1.816951389         2.535695885        -1.102588406
Al           -0.371212970        -0.201136996        -2.416574956
Al           -2.187461786        -0.102241112        -0.636757849
F            -0.792428480         3.678601911        -0.123398973
F            -3.005402770         3.178693666        -2.328587919
F            -1.191454288        -1.637189437        -1.924586554
F            -2.666152080         1.606159510         0.334797185
F            -3.135461330        -1.082674546         0.526057364
F             0.723671890        -0.692788460        -3.801319200
F            -0.566857093         1.663257922        -2.224255322
F            -2.485919357         0.468059351        -2.270138828
F            -0.345107563         0.150157580        -0.354700388
