12
Properties=species:S:1:pos:R:3:forces:R:3 energy=-187.34781888 pbc="F F F"
Al    1.27126368    -0.24823488300000002    2.365608273    -0.878002    -0.724053    -0.05679
Al    1.2216652000000001    1.2669198000000002    0.007435799999999999    0.086838    -0.011524    0.124235
Al    -0.260915362    1.06376125    -2.335804173    0.655037    0.789404    -0.461539
F    -1.590862372    -0.226655453    -2.374275606    -0.522235    -0.453559    0.026917
F    2.243168453    -0.257066553    0.7114288520000001    0.06788    0.040825    -0.077779
F    0.11905353899999999    2.14636529    -3.7147461330000002    -0.134893    -0.25746    0.319807
F    -0.41751320999999997    1.992831153    -0.6997272489999999    -0.099977    -0.019044    -0.040058
F    2.4241639569999998    2.651122312    -0.05179704299999999    0.051266    0.052904    -0.018536
F    1.323136439    0.235970805    -1.6348134539999999    -0.035802    -0.070147    -0.035151
F    0.21418571700000003    1.2512468289999998    1.659143439    0.015086    0.106933    -0.053696
F    2.364096369    0.421518676    3.707422637    0.378499    0.166118    0.337552
F    0.27008607500000004    -1.798080352    2.4748092710000003    0.416303    0.379603    -0.064963
