      12
SCF Done            -187.34781888
Al            1.133420680        -0.075906883         2.441929273
Al            1.298085200         1.175810800        -0.035105200
Al           -0.193240362         0.975364250        -2.372942173
F            -1.603987372        -0.217891453        -2.364880606
F             2.000244453        -0.416895553         0.773630852
F             0.247887539         1.981734290        -3.787800133
F            -0.289938210         1.993475153        -0.772146249
F             2.651391957         2.380895312        -0.177298043
F             1.315202439         0.087175805        -1.628450454
F             0.395101717         1.489401829         1.629935439
F             2.382750369         0.410841676         3.698062637
F            -0.156587925        -1.282930352         2.710394271
