12
Properties=species:S:1:pos:R:3:forces:R:3 energy=-187.20932565 pbc="F F F"
Al    0.38376789299999997    -0.566660158    1.7851240389999998    0.025102    -0.064637    0.301433
Al    2.365352165    -1.8133762720000002    -0.552788497    -0.16532    0.080344    -0.182927
Al    -0.9338286809999999    -1.830083058    -1.020177443    0.094699    -0.02993    -0.093744
F    3.190705007    -0.259253993    -1.13415698    0.180864    0.259341    -0.086951
F    -1.7012675540000002    -0.687996388    -2.2435488969999997    -0.162738    0.200874    -0.213889
F    3.141835795    -3.496303594    -0.515030943    0.114762    -0.356176    -0.05154
F    -1.503821566    -3.574160102    -0.6386167199999999    -0.03477    -0.305084    0.01438
F    1.798254797    -1.588939793    1.191508002    0.125746    -0.163457    0.227993
F    0.8379966640000001    -1.9443264820000001    -1.5987324649999999    0.070107    -0.000613    0.010414
F    -0.096154948    -1.452087563    3.336136089    -0.029026    -0.040119    0.097812
F    0.769903271    1.253667599    1.629242036    0.083895    0.438127    -0.1031
F    -1.012353668    -0.9093421829999999    0.590841014    -0.303322    -0.018672    0.080118
