      12
SCF Done            -164.93539452
Al           -0.217990838         1.066619960        -1.726841536
Al           -0.425832581         1.079329291         1.294734601
Al           -2.830329303         0.501084878        -1.777168009
F            -3.588154655         0.299198536        -3.775133361
F            -1.455773758        -0.585901704        -1.847556138
F            -2.026565493         2.055201389        -1.897928761
F            -2.063277377         0.709189855         0.442282909
F             0.538490416         1.255102497        -0.416416375
F            -0.304073781         2.724704804         1.986562971
F             0.358836408        -0.342646871         2.045062558
F            -4.365138967         0.193792526        -0.497400113
F             0.722723419         1.241634503        -3.210201644
