      12
SCF Done            -154.53627794
Al           -0.071956438         1.099947560        -1.634209936
Al           -0.403788181         1.084342891         1.307804601
Al           -2.640736503         0.543616478        -1.695522809
F            -3.644602255         0.283653736        -3.950538961
F            -1.534347358        -0.609666104        -1.852828538
F            -2.107897893         2.044201389        -1.903444761
F            -2.092296577         0.702661855         0.428840509
F             0.480564416         1.240263697        -0.538061575
F            -0.306330581         2.710284004         1.982278171
F             0.350861608        -0.330610471         2.040273358
F            -4.453534167         0.176279326        -0.413998513
F             0.698434219         1.236837303        -3.186497244
