12
Properties=species:S:1:pos:R:3:forces:R:3 energy=-186.34227999 pbc="F F F"
Al    -1.6497087609999999    2.56465902    -1.182820691    0.016534    -0.078067    0.000591
Al    -0.560704855    0.0037361060000000003    -2.3795615740000002    0.007794    0.033091    -0.065776
Al    -2.236192476    -0.33716661800000003    -0.5410354369999999    -0.069429    0.017378    0.018961
F    -0.425934141    3.221899736    0.05429814299999999    0.076679    0.036263    0.076603
F    -2.886202247    3.5957650930000002    -2.118472092    -0.064119    0.00848    -0.05686
F    -1.0113315800000002    -1.704389627    -1.3926287609999999    0.016207    -0.075814    0.000713
F    -2.885479362    1.4446205829999998    -0.21270623800000002    -0.039788    -0.004695    0.014411
F    -3.198194563    -1.323067432    0.634804053    0.005484    -0.010766    0.005908
F    0.661995198    -0.537652741    -3.601015104    0.008325    -0.010188    0.002791
F    -0.6336948250000001    1.902779614    -2.683609131    0.010585    0.005553    -0.040864
F    -2.544041757    0.106458351    -2.453648528    -0.019093    0.035674    -0.010784
F    -0.457645368    0.627159539    -0.455723008    0.050823    0.04309    0.054307
