12
-186.35103317
Al		-1.702094079		2.559065665		-1.228621846
Al		-0.52935754		-0.002022236		-2.348293676
Al		-2.200823846		-0.336251752		-0.516843749
F		-0.75786993		3.685633701		-0.161320553
F		-3.01705764		3.176322086		-2.315799399
F		-1.374958648		-1.674526417		-1.723225824
F		-2.52773697		1.45161734		0.056770905
F		-3.24588516		-1.300327446		0.601447854
F		0.62261746		-0.5181637		-3.64465272
F		-0.338267433		1.892472472		-2.348946552
F		-2.455279997		0.474293241		-2.303759648
F		-0.303167253		0.15869116		-0.400721838
