12
-186.35103317
Al		-1.715179089		2.556403285		-1.214263606
Al		-0.51134107		-0.024706196		-2.356072556
Al		-2.199301586		-0.309592312		-0.530504849
F		-0.76180698		3.684832611		-0.157000373
F		-3.01572987		3.176592266		-2.317256319
F		-1.354053088		-1.670272837		-1.746165654
F		-2.54350578		1.46922341		0.088444785
F		-3.23330523		-1.275531546		0.592859064
F		0.63412999		-0.53805766		-3.6625008
F		-0.364309293		1.866359422		-2.334741222
F		-2.458770557		0.473583051		-2.299929428
F		-0.307945263		0.15771898		-0.395478888
