12
-186.35103317
Al		-1.702384857		2.559006501		-1.228302774
Al		-0.528957174		-0.002526324		-2.34846654
Al		-2.200790018		-0.33565932		-0.517147329
F		-0.75795742		3.685615899		-0.161224549
F		-3.017028134		3.17632809		-2.315831775
F		-1.37449408		-1.674431893		-1.723735598
F		-2.528087388		1.452008586		0.057474769
F		-3.245605606		-1.299776426		0.601256992
F		0.622873294		-0.518605788		-3.645049344
F		-0.338846141		1.891892182		-2.348630878
F		-2.455357565		0.474277459		-2.303674532
F		-0.303273431		0.158669556		-0.400605328
