12
-186.35103317
Al		-1.702530246		2.558976919		-1.228143238
Al		-0.528756991		-0.002778368		-2.348552972
Al		-2.200773104		-0.335363104		-0.517299119
F		-0.758001165		3.685606998		-0.161176547
F		-3.017013381		3.176331092		-2.315847963
F		-1.374261796		-1.674384631		-1.723990485
F		-2.528262597		1.452204209		0.057826701
F		-3.245465829		-1.299500916		0.601161561
F		0.623001211		-0.518826832		-3.645247656
F		-0.339135495		1.891602037		-2.348473041
F		-2.455396349		0.474269568		-2.303631974
F		-0.30332652		0.158658754		-0.400547073
