12
-186.35103317
Al		-1.702821024		2.558917755		-1.227824166
Al		-0.528356625		-0.003282456		-2.348725836
Al		-2.200739276		-0.334770672		-0.517602699
F		-0.758088655		3.685589196		-0.161080543
F		-3.016983875		3.176337096		-2.315880339
F		-1.373797228		-1.674290107		-1.724500259
F		-2.528613015		1.452595455		0.058530565
F		-3.245186275		-1.298949896		0.600970699
F		0.623257045		-0.51926892		-3.64564428
F		-0.339714203		1.891021747		-2.348157367
F		-2.455473917		0.474253786		-2.303546858
F		-0.303432698		0.15863715		-0.400430563
