12
-186.35103317
Al		-1.702966413		2.558888173		-1.22766463
Al		-0.528156442		-0.0035345		-2.348812268
Al		-2.200722362		-0.334474456		-0.517754489
F		-0.7581324		3.685580295		-0.161032541
F		-3.016969122		3.176340098		-2.315896527
F		-1.373564944		-1.674242845		-1.724755146
F		-2.528788224		1.452791078		0.058882497
F		-3.245046498		-1.298674386		0.600875268
F		0.623384962		-0.519489964		-3.645842592
F		-0.340003557		1.890731602		-2.34799953
F		-2.455512701		0.474245895		-2.3035043
F		-0.303485787		0.158626348		-0.400372308
