12
-186.35103317
Al		-1.703547969		2.558769845		-1.227026486
Al		-0.52735571		-0.004542676		-2.349157996
Al		-2.200654706		-0.333289592		-0.518361649
F		-0.75830738		3.685544691		-0.160840533
F		-3.01691011		3.176352106		-2.315961279
F		-1.372635808		-1.674053797		-1.725774694
F		-2.52948906		1.45357357		0.060290225
F		-3.24448739		-1.297572346		0.600493544
F		0.62389663		-0.52037414		-3.64663584
F		-0.341160973		1.889571022		-2.347368182
F		-2.455667837		0.474214331		-2.303334068
F		-0.303698143		0.15858314		-0.400139288
