12
-186.35103317
Al		-1.703984136		2.558681099		-1.226547878
Al		-0.526755161		-0.005298808		-2.349417292
Al		-2.200603964		-0.332400944		-0.518817019
F		-0.758438615		3.685517988		-0.160696527
F		-3.016865851		3.176361112		-2.316009843
F		-1.371938956		-1.673912011		-1.726539355
F		-2.530014687		1.454160439		0.061346021
F		-3.244068059		-1.296745816		0.600207251
F		0.624280381		-0.521037272		-3.647230776
F		-0.342029035		1.888700587		-2.346894671
F		-2.455784189		0.474190658		-2.303206394
F		-0.30385741		0.158550734		-0.399964523
