12
-186.35103317
Al		-1.704129525		2.558651517		-1.226388342
Al		-0.526554978		-0.005550852		-2.349503724
Al		-2.20058705		-0.332104728		-0.518968809
F		-0.75848236		3.685509087		-0.160648525
F		-3.016851098		3.176364114		-2.316026031
F		-1.371706672		-1.673864749		-1.726794242
F		-2.530189896		1.454356062		0.061697953
F		-3.243928282		-1.296470306		0.60011182
F		0.624408298		-0.521258316		-3.647429088
F		-0.342318389		1.888410442		-2.346736834
F		-2.455822973		0.474182767		-2.303163836
F		-0.303910499		0.158539932		-0.399906268
