12
-186.35103317
Al		-1.704274914		2.558621935		-1.226228806
Al		-0.526354795		-0.005802896		-2.349590156
Al		-2.200570136		-0.331808512		-0.519120599
F		-0.758526105		3.685500186		-0.160600523
F		-3.016836345		3.176367116		-2.316042219
F		-1.371474388		-1.673817487		-1.727049129
F		-2.530365105		1.454551685		0.062049885
F		-3.243788505		-1.296194796		0.600016389
F		0.624536215		-0.52147936		-3.6476274
F		-0.342607743		1.888120297		-2.346578997
F		-2.455861757		0.474174876		-2.303121278
F		-0.303963588		0.15852913		-0.399848013
