12
-186.35103317
Al		-1.704565692		2.558562771		-1.225909734
Al		-0.525954429		-0.006306984		-2.34976302
Al		-2.200536308		-0.33121608		-0.519424179
F		-0.758613595		3.685482384		-0.160504519
F		-3.016806839		3.17637312		-2.316074595
F		-1.37100982		-1.673722963		-1.727558903
F		-2.530715523		1.454942931		0.062753749
F		-3.243508951		-1.295643776		0.599825527
F		0.624792049		-0.521921448		-3.648024024
F		-0.343186451		1.887540007		-2.346263323
F		-2.455939325		0.474159094		-2.303036162
F		-0.304069766		0.158507526		-0.399731503
