12
-186.35103317
Al		-1.704711081		2.558533189		-1.225750198
Al		-0.525754246		-0.006559028		-2.349849452
Al		-2.200519394		-0.330919864		-0.519575969
F		-0.75865734		3.685473483		-0.160456517
F		-3.016792086		3.176376122		-2.316090783
F		-1.370777536		-1.673675701		-1.72781379
F		-2.530890732		1.455138554		0.063105681
F		-3.243369174		-1.295368266		0.599730096
F		0.624919966		-0.522142492		-3.648222336
F		-0.343475805		1.887249862		-2.346105486
F		-2.455978109		0.474151203		-2.302993604
F		-0.304122855		0.158496724		-0.399673248
