12
-186.35103317
Al		-1.70485647		2.558503607		-1.225590662
Al		-0.525554063		-0.006811072		-2.349935884
Al		-2.20050248		-0.330623648		-0.519727759
F		-0.758701085		3.685464582		-0.160408515
F		-3.016777333		3.176379124		-2.316106971
F		-1.370545252		-1.673628439		-1.728068677
F		-2.531065941		1.455334177		0.063457613
F		-3.243229397		-1.295092756		0.599634665
F		0.625047883		-0.522363536		-3.648420648
F		-0.343765159		1.886959717		-2.345947649
F		-2.456016893		0.474143312		-2.302951046
F		-0.304175944		0.158485922		-0.399614993
