12
-186.35103317
Al		-1.705001859		2.558474025		-1.225431126
Al		-0.52535388		-0.007063116		-2.350022316
Al		-2.200485566		-0.330327432		-0.519879549
F		-0.75874483		3.685455681		-0.160360513
F		-3.01676258		3.176382126		-2.316123159
F		-1.370312968		-1.673581177		-1.728323564
F		-2.53124115		1.4555298		0.063809545
F		-3.24308962		-1.294817246		0.599539234
F		0.6251758		-0.52258458		-3.64861896
F		-0.344054513		1.886669572		-2.345789812
F		-2.456055677		0.474135421		-2.302908488
F		-0.304229033		0.15847512		-0.399556738
