12
-186.35103317
Al		-1.705438026		2.558385279		-1.224952518
Al		-0.524753331		-0.007819248		-2.350281612
Al		-2.200434824		-0.329438784		-0.520334919
F		-0.758876065		3.685428978		-0.160216507
F		-3.016718321		3.176391132		-2.316171723
F		-1.369616116		-1.673439391		-1.729088225
F		-2.531766777		1.456116669		0.064865341
F		-3.242670289		-1.293990716		0.599252941
F		0.625559551		-0.523247712		-3.649213896
F		-0.344922575		1.885799137		-2.345316301
F		-2.456172029		0.474111748		-2.302780814
F		-0.3043883		0.158442714		-0.399381973
