12
-186.35103317
Al		-1.705728804		2.558326115		-1.224633446
Al		-0.524352965		-0.008323336		-2.350454476
Al		-2.200400996		-0.328846352		-0.520638499
F		-0.758963555		3.685411176		-0.160120503
F		-3.016688815		3.176397136		-2.316204099
F		-1.369151548		-1.673344867		-1.729597999
F		-2.532117195		1.456507915		0.065569205
F		-3.242390735		-1.293439696		0.599062079
F		0.625815385		-0.5236898		-3.64961052
F		-0.345501283		1.885218847		-2.345000627
F		-2.456249597		0.474095966		-2.302695698
F		-0.304494478		0.15842111		-0.399265463
