12
-186.35103317
Al		-1.706891916		2.558089459		-1.223357158
Al		-0.522751501		-0.010339688		-2.351145932
Al		-2.200265684		-0.326476624		-0.521852819
F		-0.759313515		3.685339968		-0.159736487
F		-3.016570791		3.176421152		-2.316333603
F		-1.367293276		-1.672966771		-1.731637095
F		-2.533518867		1.458072899		0.068384661
F		-3.241272519		-1.291235616		0.598298631
F		0.626838721		-0.525458152		-3.651197016
F		-0.347816115		1.882897687		-2.343737931
F		-2.456559869		0.474032838		-2.302355234
F		-0.30491919		0.158334694		-0.398799423
