12
-186.35103317
Al		-1.707037305		2.558059877		-1.223197622
Al		-0.522551318		-0.010591732		-2.351232364
Al		-2.20024877		-0.326180408		-0.522004609
F		-0.75935726		3.685331067		-0.159688485
F		-3.016556038		3.176424154		-2.316349791
F		-1.367060992		-1.672919509		-1.731891982
F		-2.533694076		1.458268522		0.068736593
F		-3.241132742		-1.290960106		0.5982032
F		0.626966638		-0.525679196		-3.651395328
F		-0.348105469		1.882607542		-2.343580094
F		-2.456598653		0.474024947		-2.302312676
F		-0.304972279		0.158323892		-0.398741168
