12
-186.35103317
Al		-1.707182694		2.558030295		-1.223038086
Al		-0.522351135		-0.010843776		-2.351318796
Al		-2.200231856		-0.325884192		-0.522156399
F		-0.759401005		3.685322166		-0.159640483
F		-3.016541285		3.176427156		-2.316365979
F		-1.366828708		-1.672872247		-1.732146869
F		-2.533869285		1.458464145		0.069088525
F		-3.240992965		-1.290684596		0.598107769
F		0.627094555		-0.52590024		-3.65159364
F		-0.348394823		1.882317397		-2.343422257
F		-2.456637437		0.474017056		-2.302270118
F		-0.305025368		0.15831309		-0.398682913
