12
-186.35103317
Al		-1.707618861		2.557941549		-1.222559478
Al		-0.521750586		-0.011599908		-2.351578092
Al		-2.200181114		-0.324995544		-0.522611769
F		-0.75953224		3.685295463		-0.159496477
F		-3.016497026		3.176436162		-2.316414543
F		-1.366131856		-1.672730461		-1.73291153
F		-2.534394912		1.459051014		0.070144321
F		-3.240573634		-1.289858066		0.597821476
F		0.627478306		-0.526563372		-3.652188576
F		-0.349262885		1.881446962		-2.342948746
F		-2.456753789		0.473993383		-2.302142444
F		-0.305184635		0.158280684		-0.398508148
