12
-186.35103317
Al		-1.701367134		2.559213575		-1.229419526
Al		-0.530358455		-0.000762016		-2.347861516
Al		-2.200908416		-0.337732832		-0.516084799
F		-0.757651205		3.685678206		-0.161560563
F		-3.017131405		3.176307076		-2.315718459
F		-1.376120068		-1.674762727		-1.721951389
F		-2.526860925		1.450639225		0.055011245
F		-3.246584045		-1.301704996		0.601925009
F		0.621977875		-0.51705848		-3.64366116
F		-0.336820663		1.893923197		-2.349735737
F		-2.455086077		0.474332696		-2.303972438
F		-0.302901808		0.15874517		-0.401013113
