12
-186.35103317
Al		-1.707909639		2.557882385		-1.222240406
Al		-0.52135022		-0.012103996		-2.351750956
Al		-2.200147286		-0.324403112		-0.522915349
F		-0.75961973		3.685277661		-0.159400473
F		-3.01646752		3.176442166		-2.316446919
F		-1.365667288		-1.672635937		-1.733421304
F		-2.53474533		1.45944226		0.070848185
F		-3.24029408		-1.289307046		0.597630614
F		0.62773414		-0.52700546		-3.6525852
F		-0.349841593		1.880866672		-2.342633072
F		-2.456831357		0.473977601		-2.302057328
F		-0.305290813		0.15825908		-0.398391638
