12
-186.35103317
Al		-1.708345806		2.557793639		-1.221761798
Al		-0.520749671		-0.012860128		-2.352010252
Al		-2.200096544		-0.323514464		-0.523370719
F		-0.759750965		3.685250958		-0.159256467
F		-3.016423261		3.176451172		-2.316495483
F		-1.364970436		-1.672494151		-1.734185965
F		-2.535270957		1.460029129		0.071903981
F		-3.239874749		-1.288480516		0.597344321
F		0.628117891		-0.527668592		-3.653180136
F		-0.350709655		1.879996237		-2.342159561
F		-2.456947709		0.473953928		-2.301929654
F		-0.30545008		0.158226674		-0.398216873
