12
-186.35103317
Al		-1.70921814		2.557616147		-1.220804582
Al		-0.519548573		-0.014372392		-2.352528844
Al		-2.19999506		-0.321737168		-0.524281459
F		-0.760013435		3.685197552		-0.158968455
F		-3.016334743		3.176469184		-2.316592611
F		-1.363576732		-1.672210579		-1.735715287
F		-2.536322211		1.461202867		0.074015573
F		-3.239036087		-1.286827456		0.596771735
F		0.628885393		-0.528994856		-3.654370008
F		-0.352445779		1.878255367		-2.341212539
F		-2.457180413		0.473906582		-2.301674306
F		-0.305768614		0.158161862		-0.397867343
