12
-186.35103317
Al		-1.710962808		2.557261163		-1.21889015
Al		-0.517146377		-0.01739692		-2.353566028
Al		-2.199792092		-0.318182576		-0.526102939
F		-0.760538375		3.68509074		-0.158392431
F		-3.016157707		3.176505208		-2.316786867
F		-1.360789324		-1.671643435		-1.738773931
F		-2.538424719		1.463550343		0.078238757
F		-3.237358763		-1.283521336		0.595626563
F		0.630420397		-0.531647384		-3.656749752
F		-0.355918027		1.874773627		-2.339318495
F		-2.457645821		0.47381189		-2.30116361
F		-0.306405682		0.158032238		-0.397168283
