12
-186.35103317
Al		-1.711253586		2.557201999		-1.218571078
Al		-0.516746011		-0.017901008		-2.353738892
Al		-2.199758264		-0.317590144		-0.526406519
F		-0.760625865		3.685072938		-0.158296427
F		-3.016128201		3.176511212		-2.316819243
F		-1.360324756		-1.671548911		-1.739283705
F		-2.538775137		1.463941589		0.078942621
F		-3.237079209		-1.282970316		0.595435701
F		0.630676231		-0.532089472		-3.657146376
F		-0.356496735		1.874193337		-2.339002821
F		-2.457723389		0.473796108		-2.301078494
F		-0.30651186		0.158010634		-0.397051773
