12
-186.35103317
Al		-1.711398975		2.557172417		-1.218411542
Al		-0.516545828		-0.018153052		-2.353825324
Al		-2.19974135		-0.317293928		-0.526558309
F		-0.76066961		3.685064037		-0.158248425
F		-3.016113448		3.176514214		-2.316835431
F		-1.360092472		-1.671501649		-1.739538592
F		-2.538950346		1.464137212		0.079294553
F		-3.236939432		-1.282694806		0.59534027
F		0.630804148		-0.532310516		-3.657344688
F		-0.356786089		1.873903192		-2.338844984
F		-2.457762173		0.473788217		-2.301035936
F		-0.306564949		0.157999832		-0.396993518
