12
-186.35103317
Al		-1.712562087		2.556935761		-1.217135254
Al		-0.514944364		-0.020169404		-2.35451678
Al		-2.199606038		-0.3149242		-0.527772629
F		-0.76101957		3.684992829		-0.157864409
F		-3.015995424		3.17653823		-2.316964935
F		-1.3582342		-1.671123553		-1.741577688
F		-2.540352018		1.465702196		0.082110009
F		-3.235821216		-1.280490726		0.594576822
F		0.631827484		-0.534078868		-3.658931184
F		-0.359100921		1.871582032		-2.337582288
F		-2.458072445		0.473725089		-2.300695472
F		-0.306989661		0.157913416		-0.396527478
