12
-186.35103317
Al		-1.714161366		2.556610359		-1.215380358
Al		-0.512742351		-0.022941888		-2.355467532
Al		-2.199419984		-0.311665824		-0.529442319
F		-0.761500765		3.684894918		-0.157336387
F		-3.015833141		3.176571252		-2.317143003
F		-1.355679076		-1.670603671		-1.744381445
F		-2.542279317		1.467854049		0.085981261
F		-3.234283669		-1.277460116		0.593527081
F		0.633234571		-0.536510352		-3.661112616
F		-0.362283815		1.868390437		-2.335846081
F		-2.458499069		0.473638288		-2.300227334
F		-0.30757364		0.157794594		-0.395886673
