12
-186.35103317
Al		-1.714597533		2.556521613		-1.21490175
Al		-0.512141802		-0.02369802		-2.355726828
Al		-2.199369242		-0.310777176		-0.529897689
F		-0.761632		3.684868215		-0.157192381
F		-3.015788882		3.176580258		-2.317191567
F		-1.354982224		-1.670461885		-1.745146106
F		-2.542804944		1.468440918		0.087037057
F		-3.233864338		-1.276633586		0.593240788
F		0.633618322		-0.537173484		-3.661707552
F		-0.363151877		1.867520002		-2.33537257
F		-2.458615421		0.473614615		-2.30009966
F		-0.307732907		0.157762188		-0.395711908
