12
-186.35103317
Al		-1.7150337		2.556432867		-1.214423142
Al		-0.511541253		-0.024454152		-2.355986124
Al		-2.1993185		-0.309888528		-0.530353059
F		-0.761763235		3.684841512		-0.157048375
F		-3.015744623		3.176589264		-2.317240131
F		-1.354285372		-1.670320099		-1.745910767
F		-2.543330571		1.469027787		0.088092853
F		-3.233445007		-1.275807056		0.592954495
F		0.634002073		-0.537836616		-3.662302488
F		-0.364019939		1.866649567		-2.334899059
F		-2.458731773		0.473590942		-2.299971986
F		-0.307892174		0.157729782		-0.395537143
