12
-186.35103317
Al		-1.7004948		2.559391067		-1.230376742
Al		-0.531559553		0.000750248		-2.347342924
Al		-2.2010099		-0.339510128		-0.515174059
F		-0.757388735		3.685731612		-0.161848575
F		-3.017219923		3.176289064		-2.315621331
F		-1.377513772		-1.675046299		-1.720422067
F		-2.525809671		1.449465487		0.052899653
F		-3.247422707		-1.303358056		0.602497595
F		0.621210373		-0.515732216		-3.642471288
F		-0.335084539		1.895664067		-2.350682759
F		-2.454853373		0.474380042		-2.304227786
F		-0.302583274		0.158809982		-0.401362643
