12
-186.35103317
Al		-1.69904091		2.559686887		-1.231972102
Al		-0.533561383		0.003270688		-2.346478604
Al		-2.20117904		-0.342472288		-0.513656159
F		-0.756951285		3.685820622		-0.162328595
F		-3.017367453		3.176259044		-2.315459451
F		-1.379836612		-1.675518919		-1.717873197
F		-2.524057581		1.447509257		0.049380333
F		-3.248820477		-1.306113156		0.603451905
F		0.619931203		-0.513521776		-3.640488168
F		-0.332190999		1.898565517		-2.352261129
F		-2.454465533		0.474458952		-2.304653366
F		-0.302052384		0.158918002		-0.401945193
