12
-186.35103317
Al		-1.698895521		2.559716469		-1.232131638
Al		-0.533761566		0.003522732		-2.346392172
Al		-2.201195954		-0.342768504		-0.513504369
F		-0.75690754		3.685829523		-0.162376597
F		-3.017382206		3.176256042		-2.315443263
F		-1.380068896		-1.675566181		-1.71761831
F		-2.523882372		1.447313634		0.049028401
F		-3.248960254		-1.306388666		0.603547336
F		0.619803286		-0.513300732		-3.640289856
F		-0.331901645		1.898855662		-2.352418966
F		-2.454426749		0.474466843		-2.304695924
F		-0.301999295		0.158928804		-0.402003448
