12
-186.35103317
Al		-1.698604743		2.559775633		-1.23245071
Al		-0.534161932		0.00402682		-2.346219308
Al		-2.201229782		-0.343360936		-0.513200789
F		-0.75682005		3.685847325		-0.162472601
F		-3.017411712		3.176250038		-2.315410887
F		-1.380533464		-1.675660705		-1.717108536
F		-2.523531954		1.446922388		0.048324537
F		-3.249239808		-1.306939686		0.603738198
F		0.619547452		-0.512858644		-3.639893232
F		-0.331322937		1.899435952		-2.35273464
F		-2.454349181		0.474482625		-2.30478104
F		-0.301893117		0.158950408		-0.402119958
