12
-186.35103317
Al		-1.697877798		2.559923543		-1.23324839
Al		-0.535162847		0.00528704		-2.345787148
Al		-2.201314352		-0.344842016		-0.512441839
F		-0.756601325		3.68589183		-0.162712611
F		-3.017485477		3.176235028		-2.315329947
F		-1.381694884		-1.675897015		-1.715834101
F		-2.522655909		1.445944273		0.046564877
F		-3.249938693		-1.308317236		0.604215353
F		0.618907867		-0.511753424		-3.638901672
F		-0.329876167		1.900886677		-2.353523825
F		-2.454155261		0.47452208		-2.30499383
F		-0.301627672		0.159004418		-0.402411233
