12
-186.35103317
Al		-1.697732409		2.559953125		-1.233407926
Al		-0.53536303		0.005539084		-2.345700716
Al		-2.201331266		-0.345138232		-0.512290049
F		-0.75655758		3.685900731		-0.162760613
F		-3.01750023		3.176232026		-2.315313759
F		-1.381927168		-1.675944277		-1.715579214
F		-2.5224807		1.44574865		0.046212945
F		-3.25007847		-1.308592746		0.604310784
F		0.61877995		-0.51153238		-3.63870336
F		-0.329586813		1.901176822		-2.353681662
F		-2.454116477		0.474529971		-2.305036388
F		-0.301574583		0.15901522		-0.402469488
