12
-186.35103317
Al		-1.697150853		2.560071453		-1.23404607
Al		-0.536163762		0.00654726		-2.345354988
Al		-2.201398922		-0.346323096		-0.511682889
F		-0.7563826		3.685936335		-0.162952621
F		-3.017559242		3.176220018		-2.315249007
F		-1.382856304		-1.676133325		-1.714559666
F		-2.521779864		1.444966158		0.044805217
F		-3.250637578		-1.309694786		0.604692508
F		0.618268282		-0.510648204		-3.637910112
F		-0.328429397		1.902337402		-2.35431301
F		-2.453961341		0.474561535		-2.30520662
F		-0.301362227		0.159058428		-0.402702508
