12
-186.35103317
Al		-1.696860075		2.560130617		-1.234365142
Al		-0.536564128		0.007051348		-2.345182124
Al		-2.20143275		-0.346915528		-0.511379309
F		-0.75629511		3.685954137		-0.163048625
F		-3.017588748		3.176214014		-2.315216631
F		-1.383320872		-1.676227849		-1.714049892
F		-2.521429446		1.444574912		0.044101353
F		-3.250917132		-1.310245806		0.60488337
F		0.618012448		-0.510206116		-3.637513488
F		-0.327850689		1.902917692		-2.354628684
F		-2.453883773		0.474577317		-2.305291736
F		-0.301256049		0.159080032		-0.402819018
