12
-186.35103317
Al		-1.696714686		2.560160199		-1.234524678
Al		-0.536764311		0.007303392		-2.345095692
Al		-2.201449664		-0.347211744		-0.511227519
F		-0.756251365		3.685963038		-0.163096627
F		-3.017603501		3.176211012		-2.315200443
F		-1.383553156		-1.676275111		-1.713795005
F		-2.521254237		1.444379289		0.043749421
F		-3.251056909		-1.310521316		0.604978801
F		0.617884531		-0.509985072		-3.637315176
F		-0.327561335		1.903207837		-2.354786521
F		-2.453844989		0.474585208		-2.305334294
F		-0.30120296		0.159090834		-0.402877273
