12
-186.35103317
Al		-1.696569297		2.560189781		-1.234684214
Al		-0.536964494		0.007555436		-2.34500926
Al		-2.201466578		-0.34750796		-0.511075729
F		-0.75620762		3.685971939		-0.163144629
F		-3.017618254		3.17620801		-2.315184255
F		-1.38378544		-1.676322373		-1.713540118
F		-2.521079028		1.444183666		0.043397489
F		-3.251196686		-1.310796826		0.605074232
F		0.617756614		-0.509764028		-3.637116864
F		-0.327271981		1.903497982		-2.354944358
F		-2.453806205		0.474593099		-2.305376852
F		-0.301149871		0.159101636		-0.402935528
