12
-186.35103317
Al		-1.700204022		2.559450231		-1.230695814
Al		-0.531959919		0.001254336		-2.34717006
Al		-2.201043728		-0.34010256		-0.514870479
F		-0.757301245		3.685749414		-0.161944579
F		-3.017249429		3.17628306		-2.315588955
F		-1.37797834		-1.675140823		-1.719912293
F		-2.525459253		1.449074241		0.052195789
F		-3.247702261		-1.303909076		0.602688457
F		0.620954539		-0.515290128		-3.642074664
F		-0.334505831		1.896244357		-2.350998433
F		-2.454775805		0.474395824		-2.304312902
F		-0.302477096		0.158831586		-0.401479153
