12
-186.35103317
Al		-1.69613313		2.560278527		-1.235162822
Al		-0.537565043		0.008311568		-2.344749964
Al		-2.20151732		-0.348396608		-0.510620359
F		-0.756076385		3.685998642		-0.163288635
F		-3.017662513		3.176199004		-2.315135691
F		-1.384482292		-1.676464159		-1.712775457
F		-2.520553401		1.443596797		0.042341693
F		-3.251616017		-1.311623356		0.605360525
F		0.617372863		-0.509100896		-3.636521928
F		-0.326403919		1.904368417		-2.355417869
F		-2.453689853		0.474616772		-2.305504526
F		-0.300990604		0.159134042		-0.403110293
