12
-186.35103317
Al		-1.695551574		2.560396855		-1.235800966
Al		-0.538365775		0.009319744		-2.344404236
Al		-2.201584976		-0.349581472		-0.510013199
F		-0.755901405		3.686034246		-0.163480643
F		-3.017721525		3.176186996		-2.315070939
F		-1.385411428		-1.676653207		-1.711755909
F		-2.519852565		1.442814305		0.040933965
F		-3.252175125		-1.312725396		0.605742249
F		0.616861195		-0.50821672		-3.63572868
F		-0.325246503		1.905528997		-2.356049217
F		-2.453534717		0.474648336		-2.305674758
F		-0.300778248		0.15917725		-0.403343313
