12
-186.35103317
Al		-1.695260796		2.560456019		-1.236120038
Al		-0.538766141		0.009823832		-2.344231372
Al		-2.201618804		-0.350173904		-0.509709619
F		-0.755813915		3.686052048		-0.163576647
F		-3.017751031		3.176180992		-2.315038563
F		-1.385875996		-1.676747731		-1.711246135
F		-2.519502147		1.442423059		0.040230101
F		-3.252454679		-1.313276416		0.605933111
F		0.616605361		-0.507774632		-3.635332056
F		-0.324667795		1.906109287		-2.356364891
F		-2.453457149		0.474664118		-2.305759874
F		-0.30067207		0.159198854		-0.403459823
