12
-186.35103317
Al		-1.694970018		2.560515183		-1.23643911
Al		-0.539166507		0.01032792		-2.344058508
Al		-2.201652632		-0.350766336		-0.509406039
F		-0.755726425		3.68606985		-0.163672651
F		-3.017780537		3.176174988		-2.315006187
F		-1.386340564		-1.676842255		-1.710736361
F		-2.519151729		1.442031813		0.039526237
F		-3.252734233		-1.313827436		0.606123973
F		0.616349527		-0.507332544		-3.634935432
F		-0.324089087		1.906689577		-2.356680565
F		-2.453379581		0.4746799		-2.30584499
F		-0.300565892		0.159220458		-0.403576333
