12
-186.35103317
Al		-1.700058633		2.559479813		-1.23085535
Al		-0.532160102		0.00150638		-2.347083628
Al		-2.201060642		-0.340398776		-0.514718689
F		-0.7572575		3.685758315		-0.161992581
F		-3.017264182		3.176280058		-2.315572767
F		-1.378210624		-1.675188085		-1.719657406
F		-2.525284044		1.448878618		0.051843857
F		-3.247842038		-1.304184586		0.602783888
F		0.620826622		-0.515069084		-3.641876352
F		-0.334216477		1.896534502		-2.35115627
F		-2.454737021		0.474403715		-2.30435546
F		-0.302424007		0.158842388		-0.401537408
