12
-186.35103317
Al		-1.693952295		2.560722257		-1.237555862
Al		-0.540567788		0.012092228		-2.343453484
Al		-2.20177103		-0.352839848		-0.508343509
F		-0.75542021		3.686132157		-0.164008665
F		-3.017883808		3.176153974		-2.314892871
F		-1.387966552		-1.677173089		-1.708952152
F		-2.517925266		1.440662452		0.037062713
F		-3.253712672		-1.315756006		0.60679199
F		0.615454108		-0.505785236		-3.633547248
F		-0.322063609		1.908720592		-2.357785424
F		-2.453108093		0.474735137		-2.306142896
F		-0.300194269		0.159296072		-0.403984118
