12
-186.35103317
Al		-1.693661517		2.560781421		-1.237874934
Al		-0.540968154		0.012596316		-2.34328062
Al		-2.201804858		-0.35343228		-0.508039929
F		-0.75533272		3.686149959		-0.164104669
F		-3.017913314		3.17614797		-2.314860495
F		-1.38843112		-1.677267613		-1.708442378
F		-2.517574848		1.440271206		0.036358849
F		-3.253992226		-1.316307026		0.606982852
F		0.615198274		-0.505343148		-3.633150624
F		-0.321484901		1.909300882		-2.358101098
F		-2.453030525		0.474750919		-2.306228012
F		-0.300088091		0.159317676		-0.404100628
