12
-186.35103317
Al		-1.692934572		2.560929331		-1.238672614
Al		-0.541969069		0.013856536		-2.34284846
Al		-2.201889428		-0.35491336		-0.507280979
F		-0.755113995		3.686194464		-0.164344679
F		-3.017987079		3.17613296		-2.314779555
F		-1.38959254		-1.677503923		-1.707167943
F		-2.516698803		1.439293091		0.034599189
F		-3.254691111		-1.317684576		0.607460007
F		0.614558689		-0.504237928		-3.632159064
F		-0.320038131		1.910751607		-2.358890283
F		-2.452836605		0.474790374		-2.306440802
F		-0.299822646		0.159371686		-0.404391903
