12
-186.35103317
Al		-1.692643794		2.560988495		-1.238991686
Al		-0.542369435		0.014360624		-2.342675596
Al		-2.201923256		-0.355505792		-0.506977399
F		-0.755026505		3.686212266		-0.164440683
F		-3.018016585		3.176126956		-2.314747179
F		-1.390057108		-1.677598447		-1.706658169
F		-2.516348385		1.438901845		0.033895325
F		-3.254970665		-1.318235596		0.607650869
F		0.614302855		-0.50379584		-3.63176244
F		-0.319459423		1.911331897		-2.359205957
F		-2.452759037		0.474806156		-2.306525918
F		-0.299716468		0.15939329		-0.404508413
