12
-186.35103317
Al		-1.691480682		2.561225151		-1.240267974
Al		-0.543970899		0.016376976		-2.34198414
Al		-2.202058568		-0.35787552		-0.505763079
F		-0.754676545		3.686283474		-0.164824699
F		-3.018134609		3.17610294		-2.314617675
F		-1.39191538		-1.677976543		-1.704619073
F		-2.514946713		1.437336861		0.031079869
F		-3.256088881		-1.320439676		0.608414317
F		0.613279519		-0.502027488		-3.630175944
F		-0.317144591		1.913653057		-2.360468653
F		-2.452448765		0.474869284		-2.306866382
F		-0.299291756		0.159479706		-0.404974453
