12
-186.35103317
Al		-1.690899126		2.561343479		-1.240906118
Al		-0.544771631		0.017385152		-2.341638412
Al		-2.202126224		-0.359060384		-0.505155919
F		-0.754501565		3.686319078		-0.165016707
F		-3.018193621		3.176090932		-2.314552923
F		-1.392844516		-1.678165591		-1.703599525
F		-2.514245877		1.436554369		0.029672141
F		-3.256647989		-1.321541716		0.608796041
F		0.612767851		-0.501143312		-3.629382696
F		-0.315987175		1.914813637		-2.361100001
F		-2.452293629		0.474900848		-2.307036614
F		-0.2990794		0.159522914		-0.405207473
