12
-186.35103317
Al		-1.690172181		2.561491389		-1.241703798
Al		-0.545772546		0.018645372		-2.341206252
Al		-2.202210794		-0.360541464		-0.504396969
F		-0.75428284		3.686363583		-0.165256717
F		-3.018267386		3.176075922		-2.314471983
F		-1.394005936		-1.678401901		-1.70232509
F		-2.513369832		1.435576254		0.027912481
F		-3.257346874		-1.322919266		0.609273196
F		0.612128266		-0.500038092		-3.628391136
F		-0.314540405		1.916264362		-2.361889186
F		-2.452099709		0.474940303		-2.307249404
F		-0.298813955		0.159576924		-0.405498748
