12
-186.35103317
Al		-1.690026792		2.561520971		-1.241863334
Al		-0.545972729		0.018897416		-2.34111982
Al		-2.202227708		-0.36083768		-0.504245179
F		-0.754239095		3.686372484		-0.165304719
F		-3.018282139		3.17607292		-2.314455795
F		-1.39423822		-1.678449163		-1.702070203
F		-2.513194623		1.435380631		0.027560549
F		-3.257486651		-1.323194776		0.609368627
F		0.612000349		-0.499817048		-3.628192824
F		-0.314251051		1.916554507		-2.362047023
F		-2.452060925		0.474948194		-2.307291962
F		-0.298760866		0.159587726		-0.405557003
