12
-186.35103317
Al		-1.689736014		2.561580135		-1.242182406
Al		-0.546373095		0.019401504		-2.340946956
Al		-2.202261536		-0.361430112		-0.503941599
F		-0.754151605		3.686390286		-0.165400723
F		-3.018311645		3.176066916		-2.314423419
F		-1.394702788		-1.678543687		-1.701560429
F		-2.512844205		1.434989385		0.026856685
F		-3.257766205		-1.323745796		0.609559489
F		0.611744515		-0.49937496		-3.6277962
F		-0.313672343		1.917134797		-2.362362697
F		-2.451983357		0.474963976		-2.307377078
F		-0.298654688		0.15960933		-0.405673513
