12
-186.35103317
Al		-1.689299847		2.561668881		-1.242661014
Al		-0.546973644		0.020157636		-2.34068766
Al		-2.202312278		-0.36231876		-0.503486229
F		-0.75402037		3.686416989		-0.165544729
F		-3.018355904		3.17605791		-2.314374855
F		-1.39539964		-1.678685473		-1.700795768
F		-2.512318578		1.434402516		0.025800889
F		-3.258185536		-1.324572326		0.609845782
F		0.611360764		-0.498711828		-3.627201264
F		-0.312804281		1.918005232		-2.362836208
F		-2.451867005		0.474987649		-2.307504752
F		-0.298495421		0.159641736		-0.405848278
