12
-186.35103317
Al		-1.699477077		2.559598141		-1.231493494
Al		-0.532960834		0.002514556		-2.3467379
Al		-2.201128298		-0.34158364		-0.514111529
F		-0.75708252		3.685793919		-0.162184589
F		-3.017323194		3.17626805		-2.315508015
F		-1.37913976		-1.675377133		-1.718637858
F		-2.524583208		1.448096126		0.050436129
F		-3.248401146		-1.305286626		0.603165612
F		0.620314954		-0.514184908		-3.641083104
F		-0.333059061		1.897695082		-2.351787618
F		-2.454581885		0.474435279		-2.304525692
F		-0.302211651		0.158885596		-0.401770428
