12
-186.35103317
Al		-1.689009069		2.561728045		-1.242980086
Al		-0.54737401		0.020661724		-2.340514796
Al		-2.202346106		-0.362911192		-0.503182649
F		-0.75393288		3.686434791		-0.165640733
F		-3.01838541		3.176051906		-2.314342479
F		-1.395864208		-1.678779997		-1.700285994
F		-2.51196816		1.43401127		0.025097025
F		-3.25846509		-1.325123346		0.610036644
F		0.61110493		-0.49826974		-3.62680464
F		-0.312225573		1.918585522		-2.363151882
F		-2.451789437		0.475003431		-2.307589868
F		-0.298389243		0.15966334		-0.405964788
