12
-186.35103317
Al		-1.688572902		2.561816791		-1.243458694
Al		-0.547974559		0.021417856		-2.3402555
Al		-2.202396848		-0.36379984		-0.502727279
F		-0.753801645		3.686461494		-0.165784739
F		-3.018429669		3.1760429		-2.314293915
F		-1.39656106		-1.678921783		-1.699521333
F		-2.511442533		1.433424401		0.024041229
F		-3.258884421		-1.325949876		0.610322937
F		0.610721179		-0.497606608		-3.626209704
F		-0.311357511		1.919455957		-2.363625393
F		-2.451673085		0.475027104		-2.307717542
F		-0.298229976		0.159695746		-0.406139553
