12
-186.35103317
Al		-1.687991346		2.561935119		-1.244096838
Al		-0.548775291		0.022426032		-2.339909772
Al		-2.202464504		-0.364984704		-0.502120119
F		-0.753626665		3.686497098		-0.165976747
F		-3.018488681		3.176030892		-2.314229163
F		-1.397490196		-1.679110831		-1.698501785
F		-2.510741697		1.432641909		0.022633501
F		-3.259443529		-1.327051916		0.610704661
F		0.610209511		-0.496722432		-3.625416456
F		-0.310200095		1.920616537		-2.364256741
F		-2.451517949		0.475058668		-2.307887774
F		-0.29801762		0.159738954		-0.406372573
