12
-186.35103317
Al		-1.687119012		2.562112611		-1.245054054
Al		-0.549976389		0.023938296		-2.33939118
Al		-2.202565988		-0.366762		-0.501209379
F		-0.753364195		3.686550504		-0.166264759
F		-3.018577199		3.17601288		-2.314132035
F		-1.3988839		-1.679394403		-1.696972463
F		-2.509690443		1.431468171		0.020521909
F		-3.260282191		-1.328704976		0.611277247
F		0.609442009		-0.495396168		-3.624226584
F		-0.308463971		1.922357407		-2.365203763
F		-2.451285245		0.475106014		-2.308143122
F		-0.297699086		0.159803766		-0.406722103
