12
-186.35103317
Al		-1.686392067		2.562260521		-1.245851734
Al		-0.550977304		0.025198516		-2.33895902
Al		-2.202650558		-0.36824308		-0.500450429
F		-0.75314547		3.686595009		-0.166504769
F		-3.018650964		3.17599787		-2.314051095
F		-1.40004532		-1.679630713		-1.695698028
F		-2.508814398		1.430490056		0.018762249
F		-3.260981076		-1.330082526		0.611754402
F		0.608802424		-0.494290948		-3.623235024
F		-0.307017201		1.923808132		-2.365992948
F		-2.451091325		0.475145469		-2.308355912
F		-0.297433641		0.159857776		-0.407013378
