12
Properties=species:S:1:pos:R:3:forces:R:3 energy=-185.45767852 pbc="F F F"
Al    0.088028743    1.6505213959999998    2.195607721    0.887781    -0.898033    0.172459
Al    2.5928856959999997    2.651169625    1.5876807750000002    -1.267169    -1.516474    -3.966777
Al    1.225776258    2.6010983810000003    -0.771419853    0.006624    1.301726    -0.137091
F    1.101925952    3.2058565189999997    2.648761632    0.217082    0.253652    0.060692
F    -1.268422147    2.921967543    2.406033095    -0.119234    0.806285    0.07573
F    -0.42866386000000006    -0.030454817999999998    2.77538666    -0.392944    -0.155233    0.116538
F    1.826339769    0.851869985    1.727417634    0.064834    -0.24411    0.366043
F    2.9864005419999997    1.9496296720000001    -0.101926854    -0.13845    0.228417    1.265538
F    1.061670714    3.1828791520000004    -2.562334404    0.19576    -0.109439    -0.559842
F    1.577179868    3.9413929870000004    0.562032665    0.011414    -0.033723    0.18649
F    3.7832225659999996    2.8507092110000003    3.273899568    0.798202    1.112887    1.93195
F    -0.1190376    1.5904597679999999    0.117966305    -0.263901    -0.745955    0.488269
