      12
SCF Done            -185.45767850
Al            0.027399743         1.543960396         2.243060721
Al            2.553909696         2.458582625         1.581160775
Al            1.196623258         2.876717381        -0.702332853
F             1.121318952         3.071138519         2.682033632
F            -1.331425147         2.823291543         2.246173095
F            -0.669993860        -0.051243818         2.812360660
F             1.871409769         0.713099985         2.055498634
F             2.818256542         1.924836672        -0.135052854
F             1.183101714         2.998990152        -2.530513404
F             1.727958868         4.124596987         0.593147665
F             3.851496566         3.235001211         2.763557568
F             0.101925400         1.652635768         0.228928305
