12
-185.77729729
Al		0.250770772		-2.334583211		-1.772220461
Al		2.04643333		-0.537412856		-0.833143424
Al		-0.322155006		0.312118103		-1.831271683
F		3.646339488		-0.173629416		-0.078070023
F		-0.211616774		-4.043991693		-2.130224236
F		2.082213238		-1.852385076		-2.273388189
F		1.540347495		0.623123339		-2.31598742
F		-1.459673822		1.657743131		-2.228341311
F		-1.143225286		-1.239498252		-0.967162169
F		-0.134652174		-1.057262709		-3.206966181
F		0.531774396		0.440887598		-0.076183402
F		1.073640134		-2.03462081		-0.033583973
