12
-185.77729729
Al		0.312666272		-2.318226711		-1.909521461
Al		2.01710283		-0.546248856		-0.768908924
Al		-0.354720506		0.304597603		-1.758205183
F		3.593283988		-0.189612416		0.038122477
F		-0.099654774		-4.014404693		-2.378585236
F		2.129244238		-1.750905576		-2.309749189
F		1.513192495		0.705850839		-2.18713492
F		-1.518580322		1.644139131		-2.096172811
F		-1.141645786		-1.328132252		-1.038631169
F		-0.090161674		-0.954749709		-3.236391181
F		0.461708396		0.332468598		0.010625098
F		1.077760134		-2.12428781		-0.111989473
