12
-185.77729729
Al		0.374561772		-2.301870211		-2.046822461
Al		1.98777233		-0.555084856		-0.704674424
Al		-0.387286006		0.297077103		-1.685138683
F		3.540228488		-0.205595416		0.154314977
F		0.012307226		-3.984817693		-2.626946236
F		2.176275238		-1.649426076		-2.346110189
F		1.486037495		0.788578339		-2.05828242
F		-1.577486822		1.630535131		-1.964004311
F		-1.140066286		-1.416766252		-1.110100169
F		-0.045671174		-0.852236709		-3.265816181
F		0.391642396		0.224049598		0.097433598
F		1.081880134		-2.21395481		-0.190394973
