12
-185.77729729
Al		0.164117072		-2.357482311		-1.579999061
Al		2.08749603		-0.525042456		-0.923071724
Al		-0.276563306		0.322646803		-1.933564783
F		3.720617188		-0.151253216		-0.240739523
F		-0.368363574		-4.085413493		-1.782518836
F		2.016369838		-1.994456376		-2.222482789
F		1.578364495		0.507304839		-2.49638092
F		-1.377204722		1.676788731		-2.413377211
F		-1.145436586		-1.115410652		-0.867105569
F		-0.196938874		-1.200780909		-3.165771181
F		0.629866796		0.592674198		-0.197715302
F		1.067872134		-1.90908701		0.076183727
