12
-185.77729729
Al		0.176496172		-2.354211011		-1.607459261
Al		2.08162993		-0.526809656		-0.910224824
Al		-0.283076406		0.321142703		-1.918951483
F		3.710006088		-0.154449816		-0.217501023
F		-0.345971174		-4.079496093		-1.832191036
F		2.025776038		-1.974160476		-2.229754989
F		1.572933495		0.523850339		-2.47061042
F		-1.388986022		1.674067931		-2.386943511
F		-1.145120686		-1.133137452		-0.881399369
F		-0.188040774		-1.180278309		-3.171656181
F		0.615853596		0.570990398		-0.180353602
F		1.068696134		-1.92702041		0.060502627
