12
Properties=species:S:1:pos:R:3:forces:R:3 energy=-185.79262191 pbc="F F F"
Al    0.07427534300000001    1.6193511960000002    2.070231121    0.330517    0.120502    -0.158512
Al    2.706280296    3.063569025    1.207832175    -1.531073    3.391482    -2.095255
Al    1.260984058    2.498963181    -0.684267853    -1.087947    1.556386    0.798223
F    0.7803223520000001    3.1259077189999998    3.012968032    0.060703    -0.263527    -0.00934
F    -1.810251547    2.8460621429999997    2.1980462949999997    -0.742182    0.44609    0.025426
F    -0.51078566    -0.13550721799999998    2.79744506    0.122382    -0.087534    0.007261
F    1.760850169    0.644989585    1.997265434    -0.30595    -2.152262    0.238249
F    2.929282142    1.8864062719999999    0.002433145999999997    1.247012    -0.916255    0.175223
F    1.095994914    3.016594952    -2.292503804    0.090092    -0.175696    0.4082
F    1.9918738679999999    3.790159187    1.042756265    0.48485    -2.0823    0.273446
F    4.005752966    3.082432211    2.443566568    1.013486    0.110039    0.486916
F    0.116884    1.874684568    0.143451905    0.318109    0.053075    -0.149837
