      12
SCF Done            -185.79262186
Al           -0.065852657         1.637779196         2.150790121
Al            2.501496296         2.713992025         1.716416175
Al            1.315473058         2.715464181        -0.633433853
F             1.005805352         3.082966719         2.833010032
F            -1.606124547         2.702483143         2.177342295
F            -0.490558660        -0.029177218         2.753592060
F             1.784567169         0.774012585         1.943490434
F             3.013138142         1.825941272        -0.059018854
F             1.091679914         3.027433952        -2.379687804
F             1.758768868         3.949570187         0.631380265
F             4.146518966         3.132064211         2.476102568
F             0.002208000         1.803053568         0.206597905
