      12
SCF Done            -168.45385475
Al           -0.332415438         0.865518560        -1.820448136
Al           -0.452067981         1.136410291         1.276680401
Al           -3.045458703         0.554387678        -1.852930809
F            -3.546438255         0.333919336        -3.591700961
F            -1.484730358        -0.619008304        -1.758436138
F            -1.830968493         2.054143189        -1.972209761
F            -2.059040577         0.851871055         0.455897509
F             0.626394816         1.139669897        -0.299397175
F            -0.172851181         2.821438404         1.888475171
F             0.234703808        -0.325119471         2.140104958
F            -4.332791567         0.474114726        -0.574624113
F             0.806759419         0.927348703        -3.235496644
