      12
SCF Done            -166.43415732
Al           -1.673252189         2.538795085        -1.209071606
Al           -0.547515370         0.017708604        -2.372687756
Al           -2.230564986        -0.324733112        -0.525863449
F            -0.526898080         3.366464311        -0.010907773
F            -2.952861170         3.382641666        -2.218737519
F            -1.171047088        -1.686208637        -1.534809754
F            -2.781183280         1.451785110        -0.084082015
F            -3.194647730        -1.339559346         0.625574964
F             0.656351090        -0.556015660        -3.600159200
F            -0.497880293         1.916357122        -2.589570522
F            -2.509189757         0.316511351        -2.382938028
F            -0.397540363         0.480951980        -0.428057988
