12
Properties=species:S:1:pos:R:3:forces:R:3 energy=-185.61176849 pbc="F F F"
Al    -1.5606487610000002    2.74922042    -1.270504291    0.948131    -0.512319    -0.898755
Al    -0.542117855    0.130634206    -2.306724874    -2.688697    1.051034    1.52952
Al    -2.1000789760000003    -0.324147918    -0.413486837    0.446214    -1.78194    -0.821463
F    -0.686626041    3.7733901359999997    -0.03846165700000001    0.093901    0.063691    -0.086386
F    -3.095822747    3.0079579929999998    -2.291322592    -0.119376    0.010547    0.011144
F    -1.69515048    -1.799382027    -1.4868964610000002    -0.595674    0.520355    1.027625
F    -2.929909462    1.529659583    -0.39237943799999997    0.26131    -0.213712    -0.598321
F    -3.2203122630000003    -1.525549632    0.445962753    -0.125916    -0.421582    -0.052429
F    0.579374898    -0.480034341    -3.5762655039999998    -0.056995    0.356289    0.178659
F    -0.309221925    2.102363414    -2.570117531    0.699928    0.785559    -0.348405
F    -2.3313821569999997    0.520137651    -1.979006228    0.943554    -0.069781    0.238836
F    0.018047131999999966    -0.181628761    -0.474509908    0.19362    0.211861    -0.180025
