      12
SCF Done            -185.61176848
Al           -1.627945761         2.574152420        -1.309985291
Al           -0.631450855         0.126520206        -2.304212874
Al           -2.209449976        -0.487321918        -0.439430837
F            -0.735560041         3.690173136        -0.185801657
F            -3.024581747         3.174790993        -2.307543592
F            -1.493423480        -1.698630027        -1.593233461
F            -2.438380462         1.351849583        -0.122714438
F            -3.317171263        -1.440837632         0.650117753
F             0.557379898        -0.405431341        -3.543513504
F            -0.190696925         2.040446414        -2.429443531
F            -2.435500157         0.478317651        -2.325464228
F            -0.276091868         0.164200239        -0.430431908
