12
Properties=species:S:1:pos:R:3:forces:R:3 energy=-187.34273382 pbc="F F F"
Al    1.21191768    0.041640917    2.403277273    0.004792    0.044576    0.015464
Al    1.1401498    1.4883232    0.012210799999999994    -0.256375    0.198462    0.118925
Al    -0.352604562    0.81020485    -2.252094573    -0.00094    0.047389    -0.001582
F    -1.409820372    -0.7140350529999999    -2.377399206    0.080486    -0.13742    -0.039485
F    1.631632053    -0.343487153    0.6074982520000001    -0.094153    -0.074546    -0.031461
F    0.075572139    1.78932609    -3.726771933    0.006355    -0.00689    -0.003496
F    -0.32007301    2.304619353    -0.9403372489999999    0.040029    0.111281    -0.05256
F    2.824538157    2.222095912    -0.43271904299999997    0.129172    -0.046823    -0.051141
F    1.0050748390000002    -0.035695795    -1.256871854    -0.064207    -0.089257    0.057641
F    0.610169517    1.847641029    1.827686439    0.073912    0.094636    0.048263
F    2.519864969    0.588580876    3.546439837    0.006487    -0.006955    -0.003104
F    0.289674475    -1.548903952    2.679592471    0.074442    -0.134454    -0.057464
