      12
SCF Done            -187.34273382
Al            1.280540680         0.051383917         2.444941273
Al            1.241230800         1.230708200        -0.064289200
Al           -0.321188562         0.838224850        -2.321143573
F            -1.622729372        -0.425678053        -2.244023206
F             1.993225053        -0.353844153         0.734921252
F             0.051068139         1.818928090        -3.798534933
F            -0.358232010         1.997347353        -0.802188249
F             2.622714157         2.380315912        -0.338771043
F             1.218910839         0.026532205        -1.569114854
F             0.468229517         1.591351029         1.657023439
F             2.545399969         0.593601876         3.623571837
F             0.068383475        -1.256428952         2.788026471
