      12
SCF Done            -168.16165984
Al            1.280541062         0.051384316         2.444941637
Al            1.241230800         1.230708200        -0.064289200
Al           -0.321188185         0.838225164        -2.321143873
F            -1.622729004        -0.425677744        -2.244024277
F             1.993224992        -0.353844154         0.734921313
F             0.051068984         1.818928854        -3.798534794
F            -0.358232026         1.997347281        -0.802188095
F             2.622714153         2.380315909        -0.338771044
F             1.218911023         0.026532328        -1.569114977
F             0.468229671         1.591351223         1.657023502
F             2.545400730         0.593602619         3.623571409
F             0.068383959        -1.256428459         2.788026986
