      12
SCF Done            -170.31907575
Al            0.267289795        -0.600372278         1.728418517
Al            2.393873763        -1.825620454        -0.585480490
Al           -0.871092982        -1.792684140        -0.916436536
F             3.617264911        -0.650737193        -1.239397803
F            -1.739450651        -0.407094689        -1.725423021
F             2.931393987        -3.561060077        -0.636596592
F            -1.081153773        -3.610157585        -0.875001469
F             1.790152196        -1.432145932         1.111826200
F             0.843115364        -1.508347682        -1.487626665
F            -0.088818849        -1.174900641         3.414462281
F             0.274510579         1.133463766         1.179394072
F            -1.091864469        -1.437562721         0.858909812
