12
Properties=species:S:1:pos:R:3:forces:R:3 energy=-186.19078508 pbc="F F F"
Al    -0.365186838    1.14082316    -1.812272936    0.234202    -0.581811    -0.010179
Al    -0.433374914    1.073894453    1.324200636    -0.030548    0.073051    0.011554
Al    -2.989352519    0.180788689    -1.866419542    0.108972    1.695889    0.389854
F    -3.591278261    0.585556408    -3.832791908    -0.010678    -0.986491    -0.713373
F    -1.1614621569999999    -0.671023101    -1.846750245    -0.310494    -0.020914    -0.180141
F    -2.102085487    1.9367612029999999    -1.9107241830000001    0.216837    0.354967    0.151932
F    -2.0379193250000003    0.7764271389999999    0.505138424    0.042721    -0.177798    0.001836
F    0.616487327    1.244773643    -0.262662911    -0.004633    0.165876    0.050747
F    -0.331659775    2.771411997    1.968576147    0.040693    -0.005091    0.005688
F    0.365417115    -0.394363258    2.035783245    -0.0438    -0.027922    -0.00951
F    -4.326719692    0.39068167    -0.39350276500000003    -0.268801    -0.634145    0.378329
F    0.760175227    1.2097791370000002    -3.2607452290000003    0.02553    0.144389    -0.076737
