      12
SCF Done            -167.85223130
Al           -0.343774838         0.939591160        -1.817685936
Al           -0.449551781         1.082064491         1.281516601
Al           -3.065198503         0.668051678        -1.862808809
F            -3.489760255         0.120653336        -3.596026161
F            -1.517738158        -0.526936104        -1.891901338
F            -1.832155493         2.158060189        -1.845218761
F            -2.024374177         0.669984255         0.456597309
F             0.587638416         1.310557697        -0.295545975
F            -0.288700581         2.743232004         1.994822171
F             0.353201208        -0.356505271         2.045834158
F            -4.252734567         0.100213726        -0.578682913
F             0.739722219         1.280164103        -3.234549244
