      12
SCF Done            -186.01859038
Al            1.282350480         0.047566517         2.446346073
Al            1.232046400         1.147214200        -0.074986600
Al           -0.320936762         0.835173050        -2.324374773
F            -1.672268172        -0.369865653        -2.222052006
F             1.987018253        -0.199801553         0.686923452
F             0.047439739         1.818820490        -3.797740533
F            -0.199957810         1.858192953        -0.714372249
F             2.483016957         2.322436512        -0.301378643
F             1.257219239         0.158707005        -1.484653054
F             0.529839117         1.499682829         1.457204639
F             2.542011569         0.593376276         3.625080637
F             0.021138675        -1.201743352         2.816822871
