12
-187.24475565
Al		0.370410995		-0.579735778		1.734121217
Al		2.342422663		-1.808278454		-0.53071579
Al		-0.905423082		-1.83020784		-0.974359936
F		3.473279411		-0.525180593		-1.141961503
F		-1.843649151		-0.566282189		-1.875994721
F		2.718917687		-3.580960677		-0.488437292
F		-1.248798073		-3.611632485		-1.036203669
F		1.905051496		-1.413135532		1.2013943
F		0.819690164		-1.523769882		-1.490041765
F		0.135209651		-1.139299541		3.444836481
F		0.430834279		1.146422566		1.177521572
F		-0.956052369		-1.435252821		0.806402212
