12
-187.24475565
Al		0.351913413		-0.597161355		1.739721542
Al		2.349614486		-1.79089266		-0.520692343
Al		-0.894264173		-1.830376851		-0.990020554
F		3.475841988		-0.499504271		-1.115989256
F		-1.835635324		-0.564727982		-1.885314712
F		2.73486622		-3.564389767		-0.491487589
F		-1.228781528		-3.613062448		-1.065590579
F		1.897636461		-1.414776514		1.209784419
F		0.830476964		-1.510173352		-1.489358156
F		0.11180452		-1.168724632		3.443440783
F		0.408985936		1.136395648		1.196273427
F		-0.960533964		-1.449874186		0.795801066
