12
-187.24475565
Al		0.352329089		-0.596769769		1.739595692
Al		2.349452872		-1.791283352		-0.520917589
Al		-0.894514935		-1.830373053		-0.98966863
F		3.475784402		-0.500081267		-1.116572902
F		-1.83581541		-0.564762908		-1.885105274
F		2.734507826		-3.564762147		-0.491419043
F		-1.229231338		-3.613030314		-1.064930199
F		1.897803091		-1.414739638		1.209595877
F		0.830234564		-1.510478892		-1.489373518
F		0.112330478		-1.168063394		3.443472147
F		0.40947691		1.136620972		1.195852037
F		-0.960433254		-1.449545616		0.796039294
