12
-187.24475565
Al		0.353991793		-0.595203425		1.739092292
Al		2.348806416		-1.79284612		-0.521818573
Al		-0.895517983		-1.830357861		-0.988260934
F		3.475554058		-0.502389251		-1.118907486
F		-1.836535754		-0.564902612		-1.884267522
F		2.73307425		-3.566251667		-0.491144859
F		-1.231030578		-3.612901778		-1.062288679
F		1.898469611		-1.414592134		1.208841709
F		0.829264964		-1.511701052		-1.489434966
F		0.11443431		-1.165418442		3.443597603
F		0.411440806		1.137522268		1.194166477
F		-0.960030414		-1.448231336		0.796992206
