12
-187.24475565
Al		0.354407469		-0.594811839		1.738966442
Al		2.348644802		-1.793236812		-0.522043819
Al		-0.895768745		-1.830354063		-0.98790901
F		3.475496472		-0.502966247		-1.119491132
F		-1.83671584		-0.564937538		-1.884058084
F		2.732715856		-3.566624047		-0.491076313
F		-1.231480388		-3.612869644		-1.061628299
F		1.898636241		-1.414555258		1.208653167
F		0.829022564		-1.512006592		-1.489450328
F		0.114960268		-1.164757204		3.443628967
F		0.41193178		1.137747592		1.193745087
F		-0.959929704		-1.447902766		0.797230434
