12
-187.24475565
Al		0.355030983		-0.59422446		1.738777667
Al		2.348402381		-1.79382285		-0.522381688
Al		-0.896144888		-1.830348366		-0.987381124
F		3.475410093		-0.503831741		-1.120366601
F		-1.836985969		-0.564989927		-1.883743927
F		2.732178265		-3.567182617		-0.490973494
F		-1.232155103		-3.612821443		-1.060637729
F		1.898886186		-1.414499944		1.208370354
F		0.828658964		-1.512464902		-1.489473371
F		0.115749205		-1.163765347		3.443676013
F		0.412668241		1.138085578		1.193113002
F		-0.959778639		-1.447409911		0.797587776
