12
-187.24475565
Al		0.355446659		-0.593832874		1.738651817
Al		2.348240767		-1.794213542		-0.522606934
Al		-0.89639565		-1.830344568		-0.9870292
F		3.475352507		-0.504408737		-1.120950247
F		-1.837166055		-0.565024853		-1.883534489
F		2.731819871		-3.567554997		-0.490904948
F		-1.232604913		-3.612789309		-1.059977349
F		1.899052816		-1.414463068		1.208181812
F		0.828416564		-1.512770442		-1.489488733
F		0.116275163		-1.163104109		3.443707377
F		0.413159215		1.138310902		1.192691612
F		-0.959677929		-1.447081341		0.797826004
