12
-187.24475565
Al		0.355654497		-0.593637081		1.738588892
Al		2.34815996		-1.794408888		-0.522719557
Al		-0.896521031		-1.830342669		-0.986853238
F		3.475323714		-0.504697235		-1.12124207
F		-1.837256098		-0.565042316		-1.88342977
F		2.731640674		-3.567741187		-0.490870675
F		-1.232829818		-3.612773242		-1.059647159
F		1.899136131		-1.41444463		1.208087541
F		0.828295364		-1.512923212		-1.489496414
F		0.116538142		-1.16277349		3.443723059
F		0.413404702		1.138423564		1.192480917
F		-0.959627574		-1.446917056		0.797945118
