12
-187.24475565
Al		0.350250709		-0.598727699		1.740224942
Al		2.350260942		-1.789329892		-0.519791359
Al		-0.893261125		-1.830392043		-0.99142825
F		3.476072332		-0.497196287		-1.113654672
F		-1.83491498		-0.564588278		-1.886152464
F		2.736299796		-3.562900247		-0.491761773
F		-1.226982288		-3.613190984		-1.068232099
F		1.896969941		-1.414924018		1.210538587
F		0.831446564		-1.508951192		-1.489296708
F		0.109700688		-1.171369584		3.443315327
F		0.40702204		1.135494352		1.197958987
F		-0.960936804		-1.451188466		0.794848154
