12
-187.24475565
Al		0.355862335		-0.593441288		1.738525967
Al		2.348079153		-1.794604234		-0.52283218
Al		-0.896646412		-1.83034077		-0.986677276
F		3.475294921		-0.504985733		-1.121533893
F		-1.837346141		-0.565059779		-1.883325051
F		2.731461477		-3.567927377		-0.490836402
F		-1.233054723		-3.612757175		-1.059316969
F		1.899219446		-1.414426192		1.20799327
F		0.828174164		-1.513075982		-1.489504095
F		0.116801121		-1.162442871		3.443738741
F		0.413650189		1.138536226		1.192270222
F		-0.959577219		-1.446752771		0.798064232
