12
-187.24475565
Al		0.356485849		-0.592853909		1.738337192
Al		2.347836732		-1.795190272		-0.523170049
Al		-0.897022555		-1.830335073		-0.98614939
F		3.475208542		-0.505851227		-1.122409362
F		-1.83761627		-0.565112168		-1.883010894
F		2.730923886		-3.568485947		-0.490733583
F		-1.233729438		-3.612708974		-1.058326399
F		1.899469391		-1.414370878		1.207710457
F		0.827810564		-1.513534292		-1.489527138
F		0.117590058		-1.161451014		3.443785787
F		0.41438665		1.138874212		1.191638137
F		-0.959426154		-1.446259916		0.798421574
