12
-187.24475565
Al		0.357525039		-0.591874944		1.738022567
Al		2.347432697		-1.796167002		-0.523733164
Al		-0.89764946		-1.830325578		-0.98526958
F		3.475064577		-0.507293717		-1.123868477
F		-1.838066485		-0.565199483		-1.882487299
F		2.730027901		-3.569416897		-0.490562218
F		-1.234853963		-3.612628639		-1.056675449
F		1.899885966		-1.414278688		1.207239102
F		0.827204564		-1.514298142		-1.489565543
F		0.118904953		-1.159797919		3.443864197
F		0.415614085		1.139437522		1.190584662
F		-0.959174379		-1.445438491		0.799017144
