12
-187.24475565
Al		0.358772067		-0.590700186		1.737645017
Al		2.346947855		-1.797339078		-0.524408902
Al		-0.898401746		-1.830314184		-0.984213808
F		3.474891819		-0.509024705		-1.125619415
F		-1.838606743		-0.565304261		-1.881858985
F		2.728952719		-3.570534037		-0.49035658
F		-1.236203393		-3.612532237		-1.054694309
F		1.900385856		-1.41416806		1.206673476
F		0.826477364		-1.515214762		-1.489611629
F		0.120482827		-1.157814205		3.443958289
F		0.417087007		1.140113494		1.189320492
F		-0.958872249		-1.444452781		0.799731828
