12
-187.24475565
Al		0.358979905		-0.590504393		1.737582092
Al		2.346867048		-1.797534424		-0.524521525
Al		-0.898527127		-1.830312285		-0.984037846
F		3.474863026		-0.509313203		-1.125911238
F		-1.838696786		-0.565321724		-1.881754266
F		2.728773522		-3.570720227		-0.490322307
F		-1.236428298		-3.61251617		-1.054364119
F		1.900469171		-1.414149622		1.206579205
F		0.826356164		-1.515367532		-1.48961931
F		0.120745806		-1.157483586		3.443973971
F		0.417332494		1.140226156		1.189109797
F		-0.958821894		-1.444288496		0.799850942
