12
-187.24475565
Al		0.360019095		-0.589525428		1.737267467
Al		2.346463013		-1.798511154		-0.52508464
Al		-0.899154032		-1.83030279		-0.983158036
F		3.474719061		-0.510755693		-1.127370353
F		-1.839147001		-0.565409039		-1.881230671
F		2.727877537		-3.571651177		-0.490150942
F		-1.237552823		-3.612435835		-1.052713169
F		1.900885746		-1.414057432		1.20610785
F		0.825750164		-1.516131382		-1.489657715
F		0.122060701		-1.155830491		3.444052381
F		0.418559929		1.140789466		1.188056322
F		-0.958570119		-1.443467071		0.800446512
