12
-187.24475565
Al		0.360226933		-0.589329635		1.737204542
Al		2.346382206		-1.7987065		-0.525197263
Al		-0.899279413		-1.830300891		-0.982982074
F		3.474690268		-0.511044191		-1.127662176
F		-1.839237044		-0.565426502		-1.881125952
F		2.72769834		-3.571837367		-0.490116669
F		-1.237777728		-3.612419768		-1.052382979
F		1.900969061		-1.414038994		1.206013579
F		0.825628964		-1.516284152		-1.489665396
F		0.12232368		-1.155499872		3.444068063
F		0.418805416		1.140902128		1.187845627
F		-0.958519764		-1.443302786		0.800565626
