12
-187.24475565
Al		0.360434771		-0.589133842		1.737141617
Al		2.346301399		-1.798901846		-0.525309886
Al		-0.899404794		-1.830298992		-0.982806112
F		3.474661475		-0.511332689		-1.127953999
F		-1.839327087		-0.565443965		-1.881021233
F		2.727519143		-3.572023557		-0.490082396
F		-1.238002633		-3.612403701		-1.052052789
F		1.901052376		-1.414020556		1.205919308
F		0.825507764		-1.516436922		-1.489673077
F		0.122586659		-1.155169253		3.444083745
F		0.419050903		1.14101479		1.187634932
F		-0.958469409		-1.443138501		0.80068474
