12
-187.24475565
Al		0.360850447		-0.588742256		1.737015767
Al		2.346139785		-1.799292538		-0.525535132
Al		-0.899655556		-1.830295194		-0.982454188
F		3.474603889		-0.511909685		-1.128537645
F		-1.839507173		-0.565478891		-1.880811795
F		2.727160749		-3.572395937		-0.49001385
F		-1.238452443		-3.612371567		-1.051392409
F		1.901219006		-1.41398368		1.205730766
F		0.825265364		-1.516742462		-1.489688439
F		0.123112617		-1.154508015		3.444115109
F		0.419541877		1.141240114		1.187213542
F		-0.958368699		-1.442809931		0.800922968
