12
-187.24475565
Al		0.361266123		-0.58835067		1.736889917
Al		2.345978171		-1.79968323		-0.525760378
Al		-0.899906318		-1.830291396		-0.982102264
F		3.474546303		-0.512486681		-1.129121291
F		-1.839687259		-0.565513817		-1.880602357
F		2.726802355		-3.572768317		-0.489945304
F		-1.238902253		-3.612339433		-1.050732029
F		1.901385636		-1.413946804		1.205542224
F		0.825022964		-1.517048002		-1.489703801
F		0.123638575		-1.153846777		3.444146473
F		0.420032851		1.141465438		1.186792152
F		-0.958267989		-1.442481361		0.801161196
