12
-187.24475565
Al		0.361889637		-0.587763291		1.736701142
Al		2.34573575		-1.800269268		-0.526098247
Al		-0.900282461		-1.830285699		-0.981574378
F		3.474459924		-0.513352175		-1.12999676
F		-1.839957388		-0.565566206		-1.8802882
F		2.726264764		-3.573326887		-0.489842485
F		-1.239576968		-3.612291232		-1.049741459
F		1.901635581		-1.41389149		1.205259411
F		0.824659364		-1.517506312		-1.489726844
F		0.124427512		-1.15285492		3.444193519
F		0.420769312		1.141803424		1.186160067
F		-0.958116924		-1.441988506		0.801518538
