12
-187.24475565
Al		0.362097475		-0.587567498		1.736638217
Al		2.345654943		-1.800464614		-0.52621087
Al		-0.900407842		-1.8302838		-0.981398416
F		3.474431131		-0.513640673		-1.130288583
F		-1.840047431		-0.565583669		-1.880183481
F		2.726085567		-3.573513077		-0.489808212
F		-1.239801873		-3.612275165		-1.049411269
F		1.901718896		-1.413873052		1.20516514
F		0.824538164		-1.517659082		-1.489734525
F		0.124690491		-1.152524301		3.444209201
F		0.421014799		1.141916086		1.185949372
F		-0.958066569		-1.441824221		0.801637652
