12
-187.24475565
Al		0.363344503		-0.58639274		1.736260667
Al		2.345170101		-1.80163669		-0.526886608
Al		-0.901160128		-1.830272406		-0.980342644
F		3.474258373		-0.515371661		-1.132039521
F		-1.840587689		-0.565688447		-1.879555167
F		2.725010385		-3.574630217		-0.489602574
F		-1.241151303		-3.612178763		-1.047430129
F		1.902218786		-1.413762424		1.204599514
F		0.823810964		-1.518575702		-1.489780611
F		0.126268365		-1.150540587		3.444303293
F		0.422487721		1.142592058		1.184685202
F		-0.957764439		-1.440838511		0.802352336
