12
-187.24475565
Al		0.363552341		-0.586196947		1.736197742
Al		2.345089294		-1.801832036		-0.526999231
Al		-0.901285509		-1.830270507		-0.980166682
F		3.47422958		-0.515660159		-1.132331344
F		-1.840677732		-0.56570591		-1.879450448
F		2.724831188		-3.574816407		-0.489568301
F		-1.241376208		-3.612162696		-1.047099939
F		1.902302101		-1.413743986		1.204505243
F		0.823689764		-1.518728472		-1.489788292
F		0.126531344		-1.150209968		3.444318975
F		0.422733208		1.14270472		1.184474507
F		-0.957714084		-1.440674226		0.80247145
