12
-187.24475565
Al		0.363968017		-0.585805361		1.736071892
Al		2.34492768		-1.802222728		-0.527224477
Al		-0.901536271		-1.830266709		-0.979814758
F		3.474171994		-0.516237155		-1.13291499
F		-1.840857818		-0.565740836		-1.87924101
F		2.724472794		-3.575188787		-0.489499755
F		-1.241826018		-3.612130562		-1.046439559
F		1.902468731		-1.41370711		1.204316701
F		0.823447364		-1.519034012		-1.489803654
F		0.127057302		-1.14954873		3.444350339
F		0.423224182		1.142930044		1.184053117
F		-0.957613374		-1.440345656		0.802709678
