12
-187.24475565
Al		0.364383693		-0.585413775		1.735946042
Al		2.344766066		-1.80261342		-0.527449723
Al		-0.901787033		-1.830262911		-0.979462834
F		3.474114408		-0.516814151		-1.133498636
F		-1.841037904		-0.565775762		-1.879031572
F		2.7241144		-3.575561167		-0.489431209
F		-1.242275828		-3.612098428		-1.045779179
F		1.902635361		-1.413670234		1.204128159
F		0.823204964		-1.519339552		-1.489819016
F		0.12758326		-1.148887492		3.444381703
F		0.423715156		1.143155368		1.183631727
F		-0.957512664		-1.440017086		0.802947906
