12
-187.24475565
Al		0.364591531		-0.585217982		1.735883117
Al		2.344685259		-1.802808766		-0.527562346
Al		-0.901912414		-1.830261012		-0.979286872
F		3.474085615		-0.517102649		-1.133790459
F		-1.841127947		-0.565793225		-1.878926853
F		2.723935203		-3.575747357		-0.489396936
F		-1.242500733		-3.612082361		-1.045448989
F		1.902718676		-1.413651796		1.204033888
F		0.823083764		-1.519492322		-1.489826697
F		0.127846239		-1.148556873		3.444397385
F		0.423960643		1.14326803		1.183421032
F		-0.957462309		-1.439852801		0.80306702
