12
-187.24475565
Al		0.364799369		-0.585022189		1.735820192
Al		2.344604452		-1.803004112		-0.527674969
Al		-0.902037795		-1.830259113		-0.97911091
F		3.474056822		-0.517391147		-1.134082282
F		-1.84121799		-0.565810688		-1.878822134
F		2.723756006		-3.575933547		-0.489362663
F		-1.242725638		-3.612066294		-1.045118799
F		1.902801991		-1.413633358		1.203939617
F		0.822962564		-1.519645092		-1.489834378
F		0.128109218		-1.148226254		3.444413067
F		0.42420613		1.143380692		1.183210337
F		-0.957411954		-1.439688516		0.803186134
