12
-187.24475565
Al		0.365422883		-0.58443481		1.735631417
Al		2.344362031		-1.80359015		-0.528012838
Al		-0.902413938		-1.830253416		-0.978583024
F		3.473970443		-0.518256641		-1.134957751
F		-1.841488119		-0.565863077		-1.878507977
F		2.723218415		-3.576492117		-0.489259844
F		-1.243400353		-3.612018093		-1.044128229
F		1.903051936		-1.413578044		1.203656804
F		0.822598964		-1.520103402		-1.489857421
F		0.128898155		-1.147234397		3.444460113
F		0.424942591		1.143718678		1.182578252
F		-0.957260889		-1.439195661		0.803543476
