12
-187.24475565
Al		0.365630721		-0.584239017		1.735568492
Al		2.344281224		-1.803785496		-0.528125461
Al		-0.902539319		-1.830251517		-0.978407062
F		3.47394165		-0.518545139		-1.135249574
F		-1.841578162		-0.56588054		-1.878403258
F		2.723039218		-3.576678307		-0.489225571
F		-1.243625258		-3.612002026		-1.043798039
F		1.903135251		-1.413559606		1.203562533
F		0.822477764		-1.520256172		-1.489865102
F		0.129161134		-1.146903778		3.444475795
F		0.425188078		1.14383134		1.182367557
F		-0.957210534		-1.439031376		0.80366259
