12
-187.24475565
Al		0.365838559		-0.584043224		1.735505567
Al		2.344200417		-1.803980842		-0.528238084
Al		-0.9026647		-1.830249618		-0.9782311
F		3.473912857		-0.518833637		-1.135541397
F		-1.841668205		-0.565898003		-1.878298539
F		2.722860021		-3.576864497		-0.489191298
F		-1.243850163		-3.611985959		-1.043467849
F		1.903218566		-1.413541168		1.203468262
F		0.822356564		-1.520408942		-1.489872783
F		0.129424113		-1.146573159		3.444491477
F		0.425433565		1.143944002		1.182156862
F		-0.957160179		-1.438867091		0.803781704
