12
-187.24475565
Al		0.366046397		-0.583847431		1.735442642
Al		2.34411961		-1.804176188		-0.528350707
Al		-0.902790081		-1.830247719		-0.978055138
F		3.473884064		-0.519122135		-1.13583322
F		-1.841758248		-0.565915466		-1.87819382
F		2.722680824		-3.577050687		-0.489157025
F		-1.244075068		-3.611969892		-1.043137659
F		1.903301881		-1.41352273		1.203373991
F		0.822235364		-1.520561712		-1.489880464
F		0.129687092		-1.14624254		3.444507159
F		0.425679052		1.144056664		1.181946167
F		-0.957109824		-1.438702806		0.803900818
