12
-187.24475565
Al		0.366877749		-0.583064259		1.735190942
Al		2.343796382		-1.804957572		-0.528801199
Al		-0.903291605		-1.830240123		-0.97735129
F		3.473768892		-0.520276127		-1.137000512
F		-1.84211842		-0.565985318		-1.877774944
F		2.721964036		-3.577795447		-0.489019933
F		-1.244974688		-3.611905624		-1.041816899
F		1.903635141		-1.413448978		1.202996907
F		0.821750564		-1.521172792		-1.489911188
F		0.130739008		-1.144920064		3.444569887
F		0.426661		1.144507312		1.181103387
F		-0.956908404		-1.438045666		0.804377274
