12
-187.24475565
Al		0.367293425		-0.582672673		1.735065092
Al		2.343634768		-1.805348264		-0.529026445
Al		-0.903542367		-1.830236325		-0.976999366
F		3.473711306		-0.520853123		-1.137584158
F		-1.842298506		-0.566020244		-1.877565506
F		2.721605642		-3.578167827		-0.488951387
F		-1.245424498		-3.61187349		-1.041156519
F		1.903801771		-1.413412102		1.202808365
F		0.821508164		-1.521478332		-1.48992655
F		0.131264966		-1.144258826		3.444601251
F		0.427151974		1.144732636		1.180681997
F		-0.956807694		-1.437717096		0.804615502
