12
-187.24475565
Al		0.367501263		-0.58247688		1.735002167
Al		2.343553961		-1.80554361		-0.529139068
Al		-0.903667748		-1.830234426		-0.976823404
F		3.473682513		-0.521141621		-1.137875981
F		-1.842388549		-0.566037707		-1.877460787
F		2.721426445		-3.578354017		-0.488917114
F		-1.245649403		-3.611857423		-1.040826329
F		1.903885086		-1.413393664		1.202714094
F		0.821386964		-1.521631102		-1.489934231
F		0.131527945		-1.143928207		3.444616933
F		0.427397461		1.144845298		1.180471302
F		-0.956757339		-1.437552811		0.804734616
