12
-187.24475565
Al		0.368124777		-0.581889501		1.734813392
Al		2.34331154		-1.806129648		-0.529476937
Al		-0.904043891		-1.830228729		-0.976295518
F		3.473596134		-0.522007115		-1.13875145
F		-1.842658678		-0.566090096		-1.87714663
F		2.720888854		-3.578912587		-0.488814295
F		-1.246324118		-3.611809222		-1.039835759
F		1.904135031		-1.41333835		1.202431281
F		0.821023364		-1.522089412		-1.489957274
F		0.132316882		-1.14293635		3.444663979
F		0.428133922		1.145183284		1.179839217
F		-0.956606274		-1.437059956		0.805091958
