12
-187.24475565
Al		0.351497737		-0.597552941		1.739847392
Al		2.3497761		-1.790501968		-0.520467097
Al		-0.894013411		-1.830380649		-0.990372478
F		3.475899574		-0.498927275		-1.11540561
F		-1.835455238		-0.564693056		-1.88552415
F		2.735224614		-3.564017387		-0.491556135
F		-1.228331718		-3.613094582		-1.066250959
F		1.897469831		-1.41481339		1.209972961
F		0.830719364		-1.509867812		-1.489342794
F		0.111278562		-1.16938587		3.443409419
F		0.408494962		1.136170324		1.196694817
F		-0.960634674		-1.450202756		0.795562838
