12
-187.24475565
Al		0.368332615		-0.581693708		1.734750467
Al		2.343230733		-1.806324994		-0.52958956
Al		-0.904169272		-1.83022683		-0.976119556
F		3.473567341		-0.522295613		-1.139043273
F		-1.842748721		-0.566107559		-1.877041911
F		2.720709657		-3.579098777		-0.488780022
F		-1.246549023		-3.611793155		-1.039505569
F		1.904218346		-1.413319912		1.20233701
F		0.820902164		-1.522242182		-1.489964955
F		0.132579861		-1.142605731		3.444679661
F		0.428379409		1.145295946		1.179628522
F		-0.956555919		-1.436895671		0.805211072
