12
-187.24475565
Al		0.369163967		-0.580910536		1.734498767
Al		2.342907505		-1.807106378		-0.530040052
Al		-0.904670796		-1.830219234		-0.975415708
F		3.473452169		-0.523449605		-1.140210565
F		-1.843108893		-0.566177411		-1.876623035
F		2.719992869		-3.579843537		-0.48864293
F		-1.247448643		-3.611728887		-1.038184809
F		1.904551606		-1.41324616		1.201959926
F		0.820417364		-1.522853262		-1.489995679
F		0.133631777		-1.141283255		3.444742389
F		0.429361357		1.145746594		1.178785742
F		-0.956354499		-1.436238531		0.805687528
