12
-187.24475565
Al		0.369579643		-0.58051895		1.734372917
Al		2.342745891		-1.80749707		-0.530265298
Al		-0.904921558		-1.830215436		-0.975063784
F		3.473394583		-0.524026601		-1.140794211
F		-1.843288979		-0.566212337		-1.876413597
F		2.719634475		-3.580215917		-0.488574384
F		-1.247898453		-3.611696753		-1.037524429
F		1.904718236		-1.413209284		1.201771384
F		0.820174964		-1.523158802		-1.490011041
F		0.134157735		-1.140622017		3.444773753
F		0.429852331		1.145971918		1.178364352
F		-0.956253789		-1.435909961		0.805925756
