12
-187.24475565
Al		0.369787481		-0.580323157		1.734309992
Al		2.342665084		-1.807692416		-0.530377921
Al		-0.905046939		-1.830213537		-0.974887822
F		3.47336579		-0.524315099		-1.141086034
F		-1.843379022		-0.5662298		-1.876308878
F		2.719455278		-3.580402107		-0.488540111
F		-1.248123358		-3.611680686		-1.037194239
F		1.904801551		-1.413190846		1.201677113
F		0.820053764		-1.523311572		-1.490018722
F		0.134420714		-1.140291398		3.444789435
F		0.430097818		1.14608458		1.178153657
F		-0.956203434		-1.435745676		0.80604487
