12
-187.24475565
Al		0.347548815		-0.601273008		1.741042967
Al		2.351311433		-1.786790394		-0.51832726
Al		-0.891631172		-1.83041673		-0.993715756
F		3.476446641		-0.493445813		-1.109860973
F		-1.833744421		-0.564361259		-1.887513811
F		2.738629357		-3.560479777		-0.492207322
F		-1.224058523		-3.613399855		-1.072524569
F		1.895886846		-1.415163712		1.21176411
F		0.833022164		-1.506965182		-1.489196855
F		0.106281961		-1.175667631		3.443111461
F		0.403830709		1.134029746		1.200698022
F		-0.961591419		-1.453324171		0.793299672
