12
-187.24475565
Al		0.346093949		-0.602643559		1.741483442
Al		2.351877082		-1.785422972		-0.517538899
Al		-0.890753505		-1.830430023		-0.99494749
F		3.476648192		-0.491426327		-1.107818212
F		-1.83311412		-0.564239018		-1.888246844
F		2.739883736		-3.559176447		-0.492447233
F		-1.222484188		-3.613512324		-1.074835899
F		1.895303641		-1.415292778		1.212424007
F		0.833870564		-1.505895792		-1.489143088
F		0.104441108		-1.177981964		3.443001687
F		0.4021123		1.133241112		1.202172887
F		-0.961943904		-1.454474166		0.792465874
