12
-187.24475565
Al		0.345262597		-0.603426731		1.741735142
Al		2.35220031		-1.784641588		-0.517088407
Al		-0.890251981		-1.830437619		-0.995651338
F		3.476763364		-0.490272335		-1.10665092
F		-1.832753948		-0.564169166		-1.88866572
F		2.740600524		-3.558431687		-0.492584325
F		-1.221584568		-3.613576592		-1.076156659
F		1.894970381		-1.41536653		1.212801091
F		0.834355364		-1.505284712		-1.489112364
F		0.103389192		-1.17930444		3.442938959
F		0.401130352		1.132790464		1.203015667
F		-0.962145324		-1.455131306		0.791989418
