12
-187.24475565
Al		0.345054759		-0.603622524		1.741798067
Al		2.352281117		-1.784446242		-0.516975784
Al		-0.8901266		-1.830439518		-0.9958273
F		3.476792157		-0.489983837		-1.106359097
F		-1.832663905		-0.564151703		-1.888770439
F		2.740779721		-3.558245497		-0.492618598
F		-1.221359663		-3.613592659		-1.076486849
F		1.894887066		-1.415384968		1.212895362
F		0.834476564		-1.505131942		-1.489104683
F		0.103126213		-1.179635059		3.442923277
F		0.400884865		1.132677802		1.203226362
F		-0.962195679		-1.455295591		0.791870304
