12
-187.24475565
Al		0.344431245		-0.604209903		1.741986842
Al		2.352523538		-1.783860204		-0.516637915
Al		-0.889750457		-1.830445215		-0.996355186
F		3.476878536		-0.489118343		-1.105483628
F		-1.832393776		-0.564099314		-1.889084596
F		2.741317312		-3.557686927		-0.492721417
F		-1.220684948		-3.61364086		-1.077477419
F		1.894637121		-1.415440282		1.213178175
F		0.834840164		-1.504673632		-1.48908164
F		0.102337276		-1.180626916		3.442876231
F		0.400148404		1.132339816		1.203858447
F		-0.962346744		-1.455788446		0.791512962
