12
-187.24475565
Al		0.344015569		-0.604601489		1.742112692
Al		2.352685152		-1.783469512		-0.516412669
Al		-0.889499695		-1.830449013		-0.99670711
F		3.476936122		-0.488541347		-1.104899982
F		-1.83221369		-0.564064388		-1.889294034
F		2.741675706		-3.557314547		-0.492789963
F		-1.220235138		-3.613672994		-1.078137799
F		1.894470491		-1.415477158		1.213366717
F		0.835082564		-1.504368092		-1.489066278
F		0.101811318		-1.181288154		3.442844867
F		0.39965743		1.132114492		1.204279837
F		-0.962447454		-1.456117016		0.791274734
