12
-187.24475565
Al		0.343807731		-0.604797282		1.742175617
Al		2.352765959		-1.783274166		-0.516300046
Al		-0.889374314		-1.830450912		-0.996883072
F		3.476964915		-0.488252849		-1.104608159
F		-1.832123647		-0.564046925		-1.889398753
F		2.741854903		-3.557128357		-0.492824236
F		-1.220010233		-3.613689061		-1.078467989
F		1.894387176		-1.415495596		1.213460988
F		0.835203764		-1.504215322		-1.489058597
F		0.101548339		-1.181618773		3.442829185
F		0.399411943		1.13200183		1.204490532
F		-0.962497809		-1.456281301		0.79115562
