12
-187.24475565
Al		0.343599893		-0.604993075		1.742238542
Al		2.352846766		-1.78307882		-0.516187423
Al		-0.889248933		-1.830452811		-0.997059034
F		3.476993708		-0.487964351		-1.104316336
F		-1.832033604		-0.564029462		-1.889503472
F		2.7420341		-3.556942167		-0.492858509
F		-1.219785328		-3.613705128		-1.078798179
F		1.894303861		-1.415514034		1.213555259
F		0.835324964		-1.504062552		-1.489050916
F		0.10128536		-1.181949392		3.442813503
F		0.399166456		1.131889168		1.204701227
F		-0.962548164		-1.456445586		0.791036506
