12
-187.24475565
Al		0.343392055		-0.605188868		1.742301467
Al		2.352927573		-1.782883474		-0.5160748
Al		-0.889123552		-1.83045471		-0.997234996
F		3.477022501		-0.487675853		-1.104024513
F		-1.831943561		-0.564011999		-1.889608191
F		2.742213297		-3.556755977		-0.492892782
F		-1.219560423		-3.613721195		-1.079128369
F		1.894220546		-1.415532472		1.21364953
F		0.835446164		-1.503909782		-1.489043235
F		0.101022381		-1.182280011		3.442797821
F		0.398920969		1.131776506		1.204911922
F		-0.962598519		-1.456609871		0.790917392
