12
-187.24475565
Al		0.341521513		-0.606951005		1.742867792
Al		2.353654836		-1.78112536		-0.515061193
Al		-0.887995123		-1.830471801		-0.998818654
F		3.477281638		-0.485079371		-1.101398106
F		-1.831133174		-0.563854832		-1.890550662
F		2.74382607		-3.555080267		-0.493201239
F		-1.217536278		-3.613865798		-1.082100079
F		1.893470711		-1.415698414		1.214497969
F		0.836536964		-1.502534852		-1.488974106
F		0.09865557		-1.185255582		3.442656683
F		0.396711586		1.130762548		1.206808177
F		-0.963051714		-1.458088436		0.789845366
