12
-187.24475565
Al		0.348795843		-0.60009825		1.740665417
Al		2.350826591		-1.78796247		-0.519002998
Al		-0.892383458		-1.830405336		-0.992659984
F		3.476273883		-0.495176801		-1.111611911
F		-1.834284679		-0.564466037		-1.886885497
F		2.737554175		-3.561596917		-0.492001684
F		-1.225407953		-3.613303453		-1.070543429
F		1.896386736		-1.415053084		1.211198484
F		0.832294964		-1.507881802		-1.489242941
F		0.107859835		-1.173683917		3.443205553
F		0.405303631		1.134705718		1.199433852
F		-0.961289289		-1.452338461		0.794014356
