12
-187.24475565
Al		0.341313675		-0.607146798		1.742930717
Al		2.353735643		-1.780930014		-0.51494857
Al		-0.887869742		-1.8304737		-0.998994616
F		3.477310431		-0.484790873		-1.101106283
F		-1.831043131		-0.563837369		-1.890655381
F		2.744005267		-3.554894077		-0.493235512
F		-1.217311373		-3.613881865		-1.082430269
F		1.893387396		-1.415716852		1.21459224
F		0.836658164		-1.502382082		-1.488966425
F		0.098392591		-1.185586201		3.442641001
F		0.396466099		1.130649886		1.207018872
F		-0.963102069		-1.458252721		0.789726252
