12
-187.24475565
Al		0.340690161		-0.607734177		1.743119492
Al		2.353978064		-1.780343976		-0.514610701
Al		-0.887493599		-1.830479397		-0.999522502
F		3.47739681		-0.483925379		-1.100230814
F		-1.830773002		-0.56378498		-1.890969538
F		2.744542858		-3.554335507		-0.493338331
F		-1.216636658		-3.613930066		-1.083420839
F		1.893137451		-1.415772166		1.214875053
F		0.837021764		-1.501923772		-1.488943382
F		0.097603654		-1.186578058		3.442593955
F		0.395729638		1.1303119		1.207650957
F		-0.963253134		-1.458745576		0.78936891
