12
-187.24475565
Al		0.340482323		-0.60792997		1.743182417
Al		2.354058871		-1.78014863		-0.514498078
Al		-0.887368218		-1.830481296		-0.999698464
F		3.477425603		-0.483636881		-1.099938991
F		-1.830682959		-0.563767517		-1.891074257
F		2.744722055		-3.554149317		-0.493372604
F		-1.216411753		-3.613946133		-1.083751029
F		1.893054136		-1.415790604		1.214969324
F		0.837142964		-1.501771002		-1.488935701
F		0.097340675		-1.186908677		3.442578273
F		0.395484151		1.130199238		1.207861652
F		-0.963303489		-1.458909861		0.789249796
