12
-187.24475565
Al		0.340274485		-0.608125763		1.743245342
Al		2.354139678		-1.779953284		-0.514385455
Al		-0.887242837		-1.830483195		-0.999874426
F		3.477454396		-0.483348383		-1.099647168
F		-1.830592916		-0.563750054		-1.891178976
F		2.744901252		-3.553963127		-0.493406877
F		-1.216186848		-3.6139622		-1.084081219
F		1.892970821		-1.415809042		1.215063595
F		0.837264164		-1.501618232		-1.48892802
F		0.097077696		-1.187239296		3.442562591
F		0.395238664		1.130086576		1.208072347
F		-0.963353844		-1.459074146		0.789130682
