12
-187.24475565
Al		0.340066647		-0.608321556		1.743308267
Al		2.354220485		-1.779757938		-0.514272832
Al		-0.887117456		-1.830485094		-1.000050388
F		3.477483189		-0.483059885		-1.099355345
F		-1.830502873		-0.563732591		-1.891283695
F		2.745080449		-3.553776937		-0.49344115
F		-1.215961943		-3.613978267		-1.084411409
F		1.892887506		-1.41582748		1.215157866
F		0.837385364		-1.501465462		-1.488920339
F		0.096814717		-1.187569915		3.442546909
F		0.394993177		1.129973914		1.208283042
F		-0.963404199		-1.459238431		0.789011568
