12
-187.24475565
Al		0.339443133		-0.608908935		1.743497042
Al		2.354462906		-1.7791719		-0.513934963
Al		-0.886741313		-1.830490791		-1.000578274
F		3.477569568		-0.482194391		-1.098479876
F		-1.830232744		-0.563680202		-1.891597852
F		2.74561804		-3.553218367		-0.493543969
F		-1.215287228		-3.614026468		-1.085401979
F		1.892637561		-1.415882794		1.215440679
F		0.837748964		-1.501007152		-1.488897296
F		0.09602578		-1.188561772		3.442499863
F		0.394256716		1.129635928		1.208915127
F		-0.963555264		-1.459731286		0.788654226
