12
-187.24475565
Al		0.339027457		-0.609300521		1.743622892
Al		2.35462452		-1.778781208		-0.513709717
Al		-0.886490551		-1.830494589		-1.000930198
F		3.477627154		-0.481617395		-1.09789623
F		-1.830052658		-0.563645276		-1.89180729
F		2.745976434		-3.552845987		-0.493612515
F		-1.214837418		-3.614058602		-1.086062359
F		1.892470931		-1.41591967		1.215629221
F		0.837991364		-1.500701612		-1.488881934
F		0.095499822		-1.18922301		3.442468499
F		0.393765742		1.129410604		1.209336517
F		-0.963655974		-1.460059856		0.788415998
