12
-187.24475565
Al		0.337988267		-0.610279486		1.743937517
Al		2.355028555		-1.777804478		-0.513146602
Al		-0.885863646		-1.830504084		-1.001810008
F		3.477771119		-0.480174905		-1.096437115
F		-1.829602443		-0.563557961		-1.892330885
F		2.746872419		-3.551915037		-0.49378388
F		-1.213712893		-3.614138937		-1.087713309
F		1.892054356		-1.41601186		1.216100576
F		0.838597364		-1.499937762		-1.488843529
F		0.094184927		-1.190876105		3.442390089
F		0.392538307		1.128847294		1.210389992
F		-0.963907749		-1.460881281		0.787820428
