12
-187.24475565
Al		0.336741239		-0.611454244		1.744315067
Al		2.355513397		-1.776632402		-0.512470864
Al		-0.88511136		-1.830515478		-1.00286578
F		3.477943877		-0.478443917		-1.094686177
F		-1.829062185		-0.563453183		-1.892959199
F		2.747947601		-3.550797897		-0.493989518
F		-1.212363463		-3.614235339		-1.089694449
F		1.891554466		-1.416122488		1.216666202
F		0.839324564		-1.499021142		-1.488797443
F		0.092607053		-1.192859819		3.442295997
F		0.391065385		1.128171322		1.211654162
F		-0.964209879		-1.461866991		0.787105744
