12
-187.24475565
Al		0.336533401		-0.611650037		1.744377992
Al		2.355594204		-1.776437056		-0.512358241
Al		-0.884985979		-1.830517377		-1.003041742
F		3.47797267		-0.478155419		-1.094394354
F		-1.828972142		-0.56343572		-1.893063918
F		2.748126798		-3.550611707		-0.494023791
F		-1.212138558		-3.614251406		-1.090024639
F		1.891471151		-1.416140926		1.216760473
F		0.839445764		-1.498868372		-1.488789762
F		0.092344074		-1.193190438		3.442280315
F		0.390819898		1.12805866		1.211864857
F		-0.964260234		-1.462031276		0.78698663
