12
-187.24475565
Al		0.348172329		-0.600685629		1.740854192
Al		2.351069012		-1.787376432		-0.518665129
Al		-0.892007315		-1.830411033		-0.99318787
F		3.476360262		-0.494311307		-1.110736442
F		-1.83401455		-0.564413648		-1.887199654
F		2.738091766		-3.561038347		-0.492104503
F		-1.224733238		-3.613351654		-1.071533999
F		1.896136791		-1.415108398		1.211481297
F		0.832658564		-1.507423492		-1.489219898
F		0.107070898		-1.174675774		3.443158507
F		0.40456717		1.134367732		1.200065937
F		-0.961440354		-1.452831316		0.793657014
