12
-187.24475565
Al		0.335078535		-0.613020588		1.744818467
Al		2.356159853		-1.775069634		-0.51156988
Al		-0.884108312		-1.83053067		-1.004273476
F		3.478174221		-0.476135933		-1.092351593
F		-1.828341841		-0.563313479		-1.893796951
F		2.749381177		-3.549308377		-0.494263702
F		-1.210564223		-3.614363875		-1.092335969
F		1.890887946		-1.416269992		1.21742037
F		0.840294164		-1.497798982		-1.488735995
F		0.090503221		-1.195504771		3.442170541
F		0.389101489		1.127270026		1.213339722
F		-0.964612719		-1.463181271		0.786152832
