12
-187.24475565
Al		0.334870697		-0.613216381		1.744881392
Al		2.35624066		-1.774874288		-0.511457257
Al		-0.883982931		-1.830532569		-1.004449438
F		3.478203014		-0.475847435		-1.09205977
F		-1.828251798		-0.563296016		-1.89390167
F		2.749560374		-3.549122187		-0.494297975
F		-1.210339318		-3.614379942		-1.092666159
F		1.890804631		-1.41628843		1.217514641
F		0.840415364		-1.497646212		-1.488728314
F		0.090240242		-1.19583539		3.442154859
F		0.388856002		1.127157364		1.213550417
F		-0.964663074		-1.463345556		0.786033718
