12
-187.24475565
Al		0.334662859		-0.613412174		1.744944317
Al		2.356321467		-1.774678942		-0.511344634
Al		-0.88385755		-1.830534468		-1.0046254
F		3.478231807		-0.475558937		-1.091767947
F		-1.828161755		-0.563278553		-1.894006389
F		2.749739571		-3.548935997		-0.494332248
F		-1.210114413		-3.614396009		-1.092996349
F		1.890721316		-1.416306868		1.217608912
F		0.840536564		-1.497493442		-1.488720633
F		0.089977263		-1.196166009		3.442139177
F		0.388610515		1.127044702		1.213761112
F		-0.964713429		-1.463509841		0.785914604
