12
-187.24475565
Al		0.334247183		-0.61380376		1.745070167
Al		2.356483081		-1.77428825		-0.511119388
Al		-0.883606788		-1.830538266		-1.004977324
F		3.478289393		-0.474981941		-1.091184301
F		-1.827981669		-0.563243627		-1.894215827
F		2.750097965		-3.548563617		-0.494400794
F		-1.209664603		-3.614428143		-1.093656729
F		1.890554686		-1.416343744		1.217797454
F		0.840778964		-1.497187902		-1.488705271
F		0.089451305		-1.196827247		3.442107813
F		0.388119541		1.126819378		1.214182502
F		-0.964814139		-1.463838411		0.785676376
