12
-187.24475565
Al		0.333623669		-0.614391139		1.745258942
Al		2.356725502		-1.773702212		-0.510781519
Al		-0.883230645		-1.830543963		-1.00550521
F		3.478375772		-0.474116447		-1.090308832
F		-1.82771154		-0.563191238		-1.894529984
F		2.750635556		-3.548005047		-0.494503613
F		-1.208989888		-3.614476344		-1.094647299
F		1.890304741		-1.416399058		1.218080267
F		0.841142564		-1.496729592		-1.488682228
F		0.088662368		-1.197819104		3.442060767
F		0.38738308		1.126481392		1.214814587
F		-0.964965204		-1.464331266		0.785319034
