12
-187.24475565
Al		0.333415831		-0.614586932		1.745321867
Al		2.356806309		-1.773506866		-0.510668896
Al		-0.883105264		-1.830545862		-1.005681172
F		3.478404565		-0.473827949		-1.090017009
F		-1.827621497		-0.563173775		-1.894634703
F		2.750814753		-3.547818857		-0.494537886
F		-1.208764983		-3.614492411		-1.094977489
F		1.890221426		-1.416417496		1.218174538
F		0.841263764		-1.496576822		-1.488674547
F		0.088399389		-1.198149723		3.442045085
F		0.387137593		1.12636873		1.215025282
F		-0.965015559		-1.464495551		0.78519992
