12
-187.24475565
Al		0.347964491		-0.600881422		1.740917117
Al		2.351149819		-1.787181086		-0.518552506
Al		-0.891881934		-1.830412932		-0.993363832
F		3.476389055		-0.494022809		-1.110444619
F		-1.833924507		-0.564396185		-1.887304373
F		2.738270963		-3.560852157		-0.492138776
F		-1.224508333		-3.613367721		-1.071864189
F		1.896053476		-1.415126836		1.211575568
F		0.832779764		-1.507270722		-1.489212217
F		0.106807919		-1.175006393		3.443142825
F		0.404321683		1.13425507		1.200276632
F		-0.961490709		-1.452995601		0.7935379
