12
-187.24475565
Al		0.332792317		-0.615174311		1.745510642
Al		2.35704873		-1.772920828		-0.510331027
Al		-0.882729121		-1.830551559		-1.006209058
F		3.478490944		-0.472962455		-1.08914154
F		-1.827351368		-0.563121386		-1.89494886
F		2.751352344		-3.547260287		-0.494640705
F		-1.208090268		-3.614540612		-1.095968059
F		1.889971481		-1.41647281		1.218457351
F		0.841627364		-1.496118512		-1.488651504
F		0.087610452		-1.19914158		3.441998039
F		0.386401132		1.126030744		1.215657367
F		-0.965166624		-1.464988406		0.784842578
