12
-187.24475565
Al		0.331960965		-0.615957483		1.745762342
Al		2.357371958		-1.772139444		-0.509880535
Al		-0.882227597		-1.830559155		-1.006912906
F		3.478606116		-0.471808463		-1.087974248
F		-1.826991196		-0.563051534		-1.895367736
F		2.752069132		-3.546515527		-0.494777797
F		-1.207190648		-3.61460488		-1.097288819
F		1.889638221		-1.416546562		1.218834435
F		0.842112164		-1.495507432		-1.48862078
F		0.086558536		-1.200464056		3.441935311
F		0.385419184		1.125580096		1.216500147
F		-0.965368044		-1.465645546		0.784366122
