12
-187.24475565
Al		0.331337451		-0.616544862		1.745951117
Al		2.357614379		-1.771553406		-0.509542666
Al		-0.881851454		-1.830564852		-1.007440792
F		3.478692495		-0.470942969		-1.087098779
F		-1.826721067		-0.562999145		-1.895681893
F		2.752606723		-3.545956957		-0.494880616
F		-1.206515933		-3.614653081		-1.098279389
F		1.889388276		-1.416601876		1.219117248
F		0.842475764		-1.495049122		-1.488597737
F		0.085769599		-1.201455913		3.441888265
F		0.384682723		1.12524211		1.217132232
F		-0.965519109		-1.466138401		0.78400878
