12
-187.24475565
Al		0.330713937		-0.617132241		1.746139892
Al		2.3578568		-1.770967368		-0.509204797
Al		-0.881475311		-1.830570549		-1.007968678
F		3.478778874		-0.470077475		-1.08622331
F		-1.826450938		-0.562946756		-1.89599605
F		2.753144314		-3.545398387		-0.494983435
F		-1.205841218		-3.614701282		-1.099269959
F		1.889138331		-1.41665719		1.219400061
F		0.842839364		-1.494590812		-1.488574694
F		0.084980662		-1.20244777		3.441841219
F		0.383946262		1.124904124		1.217764317
F		-0.965670174		-1.466631256		0.783651438
