      12
SCF Done            -167.64006957
Al            1.247033462         0.090463916         2.462654037
Al            1.276784000         1.189243000        -0.083083000
Al           -0.283498585         0.794268364        -2.341066873
F            -1.509027404        -0.558286144        -2.304129077
F             1.901045192        -0.431787554         0.731182713
F            -0.075487016         1.966529854        -3.731635794
F            -0.439698226         1.784188481        -0.699686095
F             2.587876553         2.420946509        -0.320355444
F             1.385959423         0.139876928        -1.716856977
F             0.560940071         1.668675423         1.660481502
F             2.668985330         0.449468619         3.558243009
F            -0.140971241        -1.012260859         2.898694786
