12
Properties=species:S:1:pos:R:3:forces:R:3 energy=-183.34128007 pbc="F F F"
Al    0.270863372    -2.4112370110000003    -1.902553261    -0.185755    -0.576255    -0.152773
Al    1.99407933    -0.602232656    -0.825743424    -1.376549    -1.677494    -0.830388
Al    -0.407898806    0.226116303    -1.680800683    0.008837    -1.997891    -0.228424
F    3.535773888    -0.199003016    -0.141047223    -1.488646    -0.422327    -0.736043
F    -0.230861174    -4.2454370930000005    -2.259087836    -0.644121    -2.533863    -0.592084
F    2.357168438    -1.622013676    -2.3146337889999997    2.04092    2.195378    1.003189
F    2.089515495    0.542668539    -2.11549222    -0.607579    -0.9844    1.723992
F    -1.431652822    1.580675931    -2.137013511    0.742889    -0.939147    0.233495
F    -1.3574520860000001    -1.281627452    -0.7119105689999999    -0.939251    2.615961    0.544552
F    -0.271896174    -0.6670071089999999    -3.0419447809999998    -0.432461    2.743778    -0.553762
F    0.14658639599999995    0.446645198    -0.600686402    0.986789    -0.582295    -1.731337
F    1.2285849340000001    -1.96346801    -0.02090557300000001    1.894928    2.158556    1.319582
