      12
SCF Done            -183.34128007
Al            0.246944372        -2.417269011        -1.850714261
Al            1.996932330        -0.601513656        -0.831925424
Al           -0.346026806         0.241720303        -1.814891683
F             3.510934888        -0.205267016        -0.087217223
F            -0.221514174        -4.243079093        -2.279345836
F             2.291017438        -1.667108676        -2.247343789
F             1.480375495         0.586036539        -2.143323220
F            -1.423001822         1.582856931        -2.155761511
F            -1.249406086        -1.083957452        -0.934773569
F            -0.157426174        -0.808556109        -3.301320781
F             0.568973396         0.356178198        -0.168125402
F             1.217186934        -1.937932010         0.079870427
