      12
SCF Done            -187.17989753
Al            0.538253693        -0.424608958         1.684744239
Al            2.277372965        -1.961785072        -0.623852597
Al           -1.006825881        -1.829973858        -0.831513143
F             3.447649407        -0.752030693        -1.378713880
F            -1.919232254        -0.581877088        -1.788482697
F             2.577268295        -3.727165894        -0.465118443
F            -1.427723966        -3.600191002        -0.770905120
F             1.973243397        -1.397585993         1.124250402
F             0.720781664        -1.644817682        -1.496551065
F             0.349829152        -0.877336163         3.458175889
F             0.625854071         1.235667399         1.010711636
F            -0.914740568        -1.306024483         0.903748114
