12
Properties=species:S:1:pos:R:3:forces:R:3 energy=-184.65609708 pbc="F F F"
Al    0.306967793    -0.448586158    2.019953539    -0.263015    1.870452    1.640503
Al    2.6360483649999997    -1.859220472    -0.6446294969999999    2.303636    -0.7665    -0.666134
Al    -1.128991581    -1.9075729579999998    -1.1931279430000001    -1.997864    -0.821731    -1.292785
F    3.602711507    -0.22259799300000002    -1.17145338    1.275791    2.113839    -0.794364
F    -1.946044054    -0.29385988799999996    -1.9798067970000002    -1.048913    2.083977    -1.133029
F    2.683250995    -3.806892694    -0.44367604299999996    0.145922    -2.469695    0.171346
F    -1.182561566    -3.856540002    -1.0068553199999999    -0.126583    -2.473199    0.131647
F    1.6536115969999998    -1.3849683929999999    0.935521002    1.034301    -0.535975    1.332571
F    0.771771164    -1.535465082    -1.0747734650000003    0.230315    0.821682    -1.653381
F    0.06294055200000001    -1.342061363    3.773785889    -0.3129    -1.184184    2.252228
F    0.431306571    1.2044684989999999    1.020729336    0.116945    1.928027    -0.97271
F    -0.650383068    -1.414557383    0.599871414    -1.357636    -0.566694    0.984109
