      12
SCF Done            -171.57892793
Al           -1.692015189         2.562702285        -1.221738006
Al           -0.441073170         0.025384404        -2.442307356
Al           -2.288361386        -0.350474112        -0.415262049
F            -0.747698680         3.699195111        -0.150431773
F            -3.006504770         3.154109466        -2.309999319
F            -1.374255088        -1.284653437        -1.645540154
F            -2.437739880         1.394863710        -0.091191215
F            -3.373344730        -1.424982146         0.736564564
F             0.760771090        -0.583833660        -3.799836600
F            -0.456966893         1.797881722        -2.264710522
F            -2.440665557         0.451594351        -2.295443828
F            -0.334100963         0.121792380        -0.436840588
