12
Properties=species:S:1:pos:R:3:forces:R:3 energy=-186.56116197 pbc="F F F"
Al    -0.48521843800000003    1.16242316    -1.9169845360000002    0.012966    0.136382    0.021653
Al    -0.20999251399999996    0.867894053    1.196188036    -0.017317    -0.045682    -0.003873
Al    -3.1381235189999996    0.540264489    -1.682295942    0.011573    -0.0741    -0.040196
F    -3.8074490610000002    0.550274208    -3.412383708    0.000486    0.006883    0.011019
F    -1.4576041569999998    -0.466993101    -1.976989245    -0.07098    -0.067557    -0.002549
F    -2.070455487    2.155215003    -1.694533383    0.066224    0.009964    0.002532
F    -1.907958325    0.557520339    0.515981224    0.004085    0.001493    0.004089
F    0.6395101270000001    1.246120843    -0.447030111    0.007395    -0.002974    -0.021553
F    -0.08224757500000002    2.5160349969999998    2.033745347    0.003006    0.038255    0.01438
F    0.6833905149999999    -0.5591104579999999    1.786970045    -0.000292    0.001225    -0.000273
F    -4.251485292    0.13210007    -0.342844365    -0.028616    0.001854    0.027003
F    0.499378827    1.5102163370000001    -3.4026820289999997    0.011471    -0.005742    -0.012231
