      12
SCF Done            -186.56116197
Al           -0.372227438         1.086686160        -1.817494536
Al           -0.452678514         1.065879053         1.284553036
Al           -3.007428519         0.416770489        -1.863550942
F            -3.519164061         0.291870208        -3.605315708
F            -1.335758157        -0.547675101        -1.864671245
F            -1.983518487         2.064245003        -1.872227383
F            -2.028510325         0.673699339         0.454539224
F             0.584375127         1.319596843        -0.290614111
F            -0.355367575         2.725187997         2.019569347
F             0.407107515        -0.349294458         2.028461045
F            -4.257077292         0.117814070        -0.587051365
F             0.731800827         1.347419337        -3.230322029
