12
Properties=species:S:1:pos:R:3:forces:R:3 energy=-187.11845914 pbc="F F F"
Al    1.1394221800000002    -0.062040183    2.253399073    0.23506    0.046137    -0.015545
Al    1.586674    1.145987    -0.1943675    0.249368    -0.911795    -0.234337
Al    -0.332476062    0.66102175    -2.126360773    0.202158    0.062306    -0.113473
F    -1.9662471719999999    -0.160935453    -1.9599656060000001    -0.354889    0.151588    0.212422
F    2.350039253    -0.351097453    0.723737952    0.334606    0.034129    0.065741
F    0.29092813900000003    1.86329629    -3.427696333    -0.015045    0.021181    0.007167
F    -0.33282931    1.559446753    -0.5008550490000001    -0.234596    -0.133597    0.18606
F    2.460112557    2.7728730120000002    -0.21931744300000003    0.070538    0.550013    0.067097
F    1.511896239    0.060634405    -1.7702247539999998    0.23288    0.0841    -0.236941
F    0.268352117    1.264118929    1.288010039    -0.310803    -0.096162    -0.0407
F    2.523453969    0.7665820760000001    3.215382437    -0.01423    0.02078    0.009595
F    -0.348765325    -0.9555153519999999    2.8529870710000003    -0.395047    0.171321    0.092914
