      12
SCF Done            -187.11845914
Al            1.287859180         0.042848817         2.441073073
Al            1.365667000         1.085580000        -0.130067500
Al           -0.313870062         0.829689750        -2.325011773
F            -1.790123172        -0.230449453        -2.155537606
F             2.238047253        -0.347795453         0.808456952
F             0.045867139         1.824994290        -3.795785333
F            -0.361094310         1.770709753        -0.683828049
F             2.500782557         2.522523012        -0.274316443
F             1.372471239         0.077412405        -1.767135754
F             0.374106117         1.409544929         1.503827039
F             2.540198969         0.599668076         3.626321437
F            -0.099010325        -1.061200352         2.876512071
