12
Properties=species:S:1:pos:R:3:forces:R:3 energy=-185.90347776 pbc="F F F"
Al    -0.355694838    1.1361855600000001    -1.763248936    -0.494457    0.879978    0.862742
Al    -0.396331914    1.041802453    1.320511036    -0.17755    -0.190706    -0.202234
Al    -2.901764119    0.423121089    -1.827857142    -0.128261    -0.296843    -0.071901
F    -3.379675861    0.39632840799999997    -3.590877908    0.043584    -0.063108    -0.012606
F    -1.255460357    -0.577685301    -1.8066952449999998    0.180466    -0.210703    -0.392557
F    -1.9572148870000001    2.146218203    -1.8375635830000001    -0.010355    0.223214    0.347291
F    -1.787328925    0.494496739    0.236901024    -0.226628    -0.645815    0.129157
F    0.649346327    1.787317043    -0.324120711    0.130752    0.749418    -0.020189
F    -0.341249975    2.747971197    2.126891547    0.590375    0.653231    -0.30364
F    -0.076938685    -0.561358058    2.201783045    -0.352862    -0.592469    0.252969
F    -4.097808692    0.26710847    -0.465398365    -0.064081    0.072307    0.025377
F    0.277459027    0.9046039370000001    -3.638576429    0.509017    -0.578504    -0.61441
