      12
SCF Done            -184.06357105
Al            0.251708472        -2.402397611        -1.846785361
Al            2.003227130        -0.591419256        -0.827846124
Al           -0.344219206         0.252951903        -1.812750583
F             3.529965288        -0.201059616        -0.077946523
F            -0.212400474        -4.207925393        -2.271049636
F             2.259352138        -1.691222776        -2.254108589
F             1.488560495         0.597732839        -2.163510420
F            -1.433040922         1.594431031        -2.159046911
F            -1.231603986        -1.115789852        -0.944936269
F            -0.150664474        -0.843173009        -3.287556681
F             0.558102496         0.363068498        -0.147014502
F             1.193537134        -1.960024610         0.055734327
