      12
SCF Done            -180.81402991
Al           -0.357270238         1.036771360        -1.713612836
Al           -0.257081614         1.110362153         1.009662836
Al           -3.094190719         0.442136189        -1.878038442
F            -3.562654761         0.306493908        -3.681582008
F            -1.180466557        -0.379241301        -1.832473845
F            -1.690627687         1.981320103        -1.877495583
F            -1.971360525         0.730230139         0.503914124
F             0.285490327         1.204658543        -0.194397411
F            -0.326376675         2.608021897         1.951795447
F             0.290630115        -0.246928058         2.006244645
F            -4.345353692         0.197930770        -0.504617065
F             0.597092927         1.216623637        -3.097975829
