      12
SCF Done            -187.35959878
Al            1.406974180         0.152988817         2.445425073
Al            1.259033000         1.200436500        -0.123064500
Al           -0.423978562         0.719471250        -2.280004273
F            -1.726030172        -0.496570953        -2.096959106
F             2.115615753        -0.298132953         0.741181952
F            -0.115672361         1.686433790        -3.806040333
F            -0.416642810         1.881859253        -0.765225049
F             2.534947057         2.454322512        -0.439569943
F             1.219104239         0.002647405        -1.623393754
F             0.479866617         1.581076929         1.599351039
F             2.678216969         0.749079576         3.562936437
F             0.168177175        -1.132081852         2.899069571
