12
Properties=species:S:1:pos:R:3:forces:R:3 energy=-185.14452634 pbc="F F F"
Al    0.10741867199999999    -2.411450811    -1.505563561    -0.206388    -0.664721    -0.172589
Al    2.06540573    -0.558723456    -0.927154524    -0.571817    -0.738963    -0.349846
Al    -0.29185900600000003    0.28770910299999997    -1.9141113829999998    -0.032763    -0.86056    -0.115264
F    3.569304088    -0.192321816    -0.062171122999999995    -0.732509    -0.173292    -0.358163
F    -0.16726707400000002    -4.130833993    -2.312770236    -0.334336    -1.304267    -0.306051
F    2.289555538    -1.874902976    -2.543704189    1.196328    1.094463    0.411441
F    1.333741495    0.32265343899999993    -1.8361968199999998    -0.319186    -0.485797    0.859873
F    -1.455413122    1.617001231    -2.1606477109999997    0.380679    -0.447848    0.123537
F    -1.059157786    -1.050132652    -1.1184846689999999    -0.605868    1.365783    0.352269
F    -0.099855074    -0.997808809    -3.484177481    -0.250041    1.455525    -0.418881
F    0.345311696    0.583962098    0.31256629799999996    0.481186    -0.283941    -0.8747
F    1.2810415339999999    -1.81116981    -0.21133587299999998    0.994717    1.043616    0.848373
