12
Properties=species:S:1:pos:R:3:forces:R:3 energy=-186.13331324 pbc="F F F"
Al    0.687277393    -0.564526158    1.798775039    1.131569    0.112739    -0.32652
Al    2.3569221650000003    -1.6529741720000002    -0.777945597    -2.13066    -0.446802    -1.658924
Al    -1.019049981    -1.7941509580000001    -0.8036720430000001    -0.682078    0.742014    2.238721
F    3.775677007    -0.462985493    -1.1989401800000001    0.96221    0.957696    0.717882
F    -1.8611162540000001    -0.6064155880000001    -1.9924253969999999    0.070404    0.609345    -1.332023
F    2.602952395    -3.480107894    -0.273964043    0.661646    -0.787992    0.713439
F    -1.182369566    -3.616981402    -1.19732722    0.518185    -1.012624    -0.632506
F    2.031002397    -1.8433350929999999    1.287988302    0.07843    0.424931    -0.186714
F    0.711986564    -1.623292682    -1.559643865    -0.005732    -0.100939    -0.053481
F    -0.118777148    -1.162625763    3.369469989    -0.516275    -0.172665    0.250664
F    0.04922827099999999    1.150805799    1.2715653359999999    0.090423    0.098995    -0.04614
F    -0.833562468    -1.250304783    0.9049594140000001    -0.178123    -0.424697    0.315602
