12
Properties=species:S:1:pos:R:3:forces:R:3 energy=-187.37791525 pbc="F F F"
Al    1.17737968    0.07543711700000001    2.398669273    -0.092658    0.071314    -0.035171
Al    1.377406    1.283775    -0.10129300000000001    0.014404    0.013532    -0.002606
Al    -0.28922716200000004    0.73847385    -2.263439973    0.072509    -0.090248    0.038827
F    -1.314010972    -0.788327453    -2.147379006    -0.077438    -0.083084    0.010787
F    1.782271253    -0.452320353    0.653481252    0.062608    -0.077948    -0.063851
F    -0.402937861    2.00910589    -3.6453907329999997    0.021934    0.122764    -0.132432
F    -0.45041441    1.683072953    -0.598550049    -0.061632    0.078866    0.063674
F    2.672042557    2.500024512    -0.33558744300000004    -0.002727    -0.002562    0.000494
F    1.544471239    0.341331005    -1.823793654    0.017187    -0.022609    -0.041152
F    0.7857763170000001    1.827359629    1.698043639    -0.013642    0.025939    0.040509
F    2.679975369    0.10959527600000002    3.529269437    0.146418    0.035399    0.101957
F    -0.38763152500000003    -0.8307473519999999    2.751290471    -0.086964    -0.071363    0.018965
