12
-187.24475565
Al		0.164022393		-0.601699158		1.713374539
Al		2.494316165		-1.707992672		-0.254955097
Al		-0.677612981		-1.906536958		-1.204142543
F		3.440287507		-0.501553993		-1.36574718
F		-1.941307254		-0.561143088		-1.654263397
F		2.614189395		-3.550832894		-0.657279043
F		-1.390715566		-3.628434402		-0.94562672
F		1.817710397		-1.505626593		1.432071802
F		1.052544564		-1.505657682		-1.457116865
F		0.238229352		-1.170700763		3.462107489
F		0.372972771		1.134728299		1.193738336
F		-0.975953468		-1.362239783		0.559564414
