12
-187.24475565
Al		0.512031393		-0.597229158		1.764073039
Al		2.224667165		-1.859401172		-0.750889597
Al		-1.081247981		-1.763775958		-0.806293043
F		3.507546007		-0.491760493		-0.89143218
F		-1.741315254		-0.567504588		-2.089644397
F		2.844154395		-3.572411894		-0.347127043
F		-1.082450566		-3.599943402		-1.17736922
F		1.965853397		-1.335663093		1.017227302
F		0.638667564		-1.510973682		-1.517410865
F		-0.004241148		-1.173814763		3.426783989
F		0.435434271		1.135530799		1.202837336
F		-0.948080468		-1.529942783		1.000051414
