12
-187.24475565
Al		0.581633195		-0.596335078		1.774212717
Al		2.170737363		-1.889682854		-0.85007649
Al		-1.161974982		-1.73522374		-0.726723136
F		3.520997711		-0.489801793		-0.796569203
F		-1.701316851		-0.568776889		-2.176720621
F		2.890147387		-3.576727677		-0.285096592
F		-1.020797573		-3.594245185		-1.223717669
F		1.995481996		-1.301670332		0.9342584
F		0.555892164		-1.512036882		-1.529469665
F		-0.052735249		-1.174437441		3.419719281
F		0.447926579		1.135691366		1.204657072
F		-0.942505869		-1.563483321		1.088148812
