12
-187.24475565
Al		0.488830795		-0.597527078		1.760693117
Al		2.242643763		-1.849307254		-0.71782729
Al		-1.054338982		-1.77329334		-0.832816336
F		3.503062111		-0.492413393		-0.923053203
F		-1.754648051		-0.567080489		-2.060619021
F		2.828823387		-3.570973277		-0.367803792
F		-1.103001573		-3.601842785		-1.161919669
F		1.955977196		-1.346993932		1.0448836
F		0.666259364		-1.510619282		-1.513391265
F		0.011923551		-1.173607041		3.429138881
F		0.431270179		1.135477366		1.202230672
F		-0.949938669		-1.518762521		0.970685612
