12
-187.24475565
Al		0.303225993		-0.599911158		1.733653939
Al		2.386456565		-1.768556072		-0.453328897
Al		-0.839066981		-1.849432558		-1.045002743
F		3.467190907		-0.497636593		-1.17602118
F		-1.861310454		-0.563687688		-1.828415797
F		2.706175395		-3.559464494		-0.533218243
F		-1.267409566		-3.617038002		-1.03832372
F		1.876967597		-1.437641193		1.266134002
F		0.886993764		-1.507784082		-1.481234465
F		0.141241152		-1.171946363		3.447978089
F		0.397957371		1.135049299		1.197377936
F		-0.964804268		-1.429320983		0.735759214
