12
-187.24475565
Al		0.256824795		-0.600507078		1.726894117
Al		2.422409763		-1.748368254		-0.38720429
Al		-0.785248982		-1.86846734		-1.098049336
F		3.458223111		-0.498942393		-1.239263203
F		-1.887976051		-0.562839489		-1.770365021
F		2.675513387		-3.556587277		-0.574571792
F		-1.308511573		-3.620836785		-1.007424669
F		1.857215196		-1.460302932		1.3214466
F		0.942177364		-1.507075282		-1.473195265
F		0.173570551		-1.171531041		3.452687881
F		0.389629179		1.134942366		1.196164672
F		-0.968520669		-1.406960521		0.677027612
