12
-187.24475565
Al		0.280025393		-0.600209158		1.730274039
Al		2.404433165		-1.758462172		-0.420266597
Al		-0.812157981		-1.858949958		-1.071526043
F		3.462707007		-0.498289493		-1.20764218
F		-1.874643254		-0.563263588		-1.799390397
F		2.690844395		-3.558025894		-0.553895043
F		-1.287960566		-3.618937402		-1.02287422
F		1.867091397		-1.448972093		1.293790302
F		0.914585564		-1.507429682		-1.477214865
F		0.157405852		-1.171738763		3.450332989
F		0.393793271		1.134995799		1.196771336
F		-0.966662468		-1.418140783		0.706393414
