12
-187.24475565
Al		0.535231995		-0.596931078		1.767452917
Al		2.206690563		-1.869495054		-0.78395189
Al		-1.108156982		-1.75425854		-0.779769736
F		3.512029911		-0.491107593		-0.859811203
F		-1.727982451		-0.567928689		-2.118669821
F		2.859485387		-3.573850477		-0.326450192
F		-1.061899573		-3.598043985		-1.192818669
F		1.975729596		-1.324332132		0.989571
F		0.611075764		-1.511328082		-1.521430465
F		-0.020405849		-1.174022241		3.424429081
F		0.439598379		1.135584366		1.203443872
F		-0.946222269		-1.541122921		1.029417212
