12
-187.24475565
Al		0.210423595		-0.601103078		1.720134317
Al		2.458362963		-1.728180454		-0.32107969
Al		-0.731430982		-1.88750214		-1.151095936
F		3.449255311		-0.500248193		-1.302505203
F		-1.914641651		-0.561991289		-1.712314221
F		2.644851387		-3.553710077		-0.615925392
F		-1.349613573		-3.624635585		-0.976525669
F		1.837462796		-1.482964732		1.3767592
F		0.997360964		-1.506366482		-1.465156065
F		0.205899951		-1.171115841		3.457397681
F		0.381300979		1.134835366		1.194951472
F		-0.972237069		-1.384600121		0.618296012
