12
-187.24475565
Al		0.581633195		-0.596335078		1.774212717
Al		2.170737363		-1.889682854		-0.85007649
Al		-1.161974982		-1.73522374		-0.726723136
F		3.520997711		-0.489801793		-0.796569203
F		-1.701316851		-0.568776889		-2.176720621
F		2.890147387		-3.576727677		-0.285096592
F		-1.020797573		-3.594245185		-1.223717669
F		1.995481996		-1.301670332		0.9342584
F		0.555892164		-1.512036882		-1.529469665
F		-0.052735249		-1.174437441		3.419719281
F		0.447926579		1.135691366		1.204657072
F		-0.942505869		-1.563483321		1.088148812
12
-187.24475565
Al		0.535231995		-0.596931078		1.767452917
Al		2.206690563		-1.869495054		-0.78395189
Al		-1.108156982		-1.75425854		-0.779769736
F		3.512029911		-0.491107593		-0.859811203
F		-1.727982451		-0.567928689		-2.118669821
F		2.859485387		-3.573850477		-0.326450192
F		-1.061899573		-3.598043985		-1.192818669
F		1.975729596		-1.324332132		0.989571
F		0.611075764		-1.511328082		-1.521430465
F		-0.020405849		-1.174022241		3.424429081
F		0.439598379		1.135584366		1.203443872
F		-0.946222269		-1.541122921		1.029417212
12
-187.24475565
Al		0.488830795		-0.597527078		1.760693117
Al		2.242643763		-1.849307254		-0.71782729
Al		-1.054338982		-1.77329334		-0.832816336
F		3.503062111		-0.492413393		-0.923053203
F		-1.754648051		-0.567080489		-2.060619021
F		2.828823387		-3.570973277		-0.367803792
F		-1.103001573		-3.601842785		-1.161919669
F		1.955977196		-1.346993932		1.0448836
F		0.666259364		-1.510619282		-1.513391265
F		0.011923551		-1.173607041		3.429138881
F		0.431270179		1.135477366		1.202230672
F		-0.949938669		-1.518762521		0.970685612
12
-187.24475565
Al		0.442429595		-0.598123078		1.753933317
Al		2.278596963		-1.829119454		-0.65170269
Al		-1.000520982		-1.79232814		-0.885862936
F		3.494094311		-0.493719193		-0.986295203
F		-1.781313651		-0.566232289		-2.002568221
F		2.798161387		-3.568096077		-0.409157392
F		-1.144103573		-3.605641585		-1.131020669
F		1.936224796		-1.369655732		1.1001962
F		0.721442964		-1.509910482		-1.505352065
F		0.044252951		-1.173191841		3.433848681
F		0.422941979		1.135370366		1.201017472
F		-0.953655069		-1.496402121		0.911954012
12
-187.24475565
Al		0.396028395		-0.598719078		1.747173517
Al		2.314550163		-1.808931654		-0.58557809
Al		-0.946702982		-1.81136294		-0.938909536
F		3.485126511		-0.495024993		-1.049537203
F		-1.807979251		-0.565384089		-1.944517421
F		2.767499387		-3.565218877		-0.450510992
F		-1.185205573		-3.609440385		-1.100121669
F		1.916472396		-1.392317532		1.1555088
F		0.776626564		-1.509201682		-1.497312865
F		0.076582351		-1.172776641		3.438558481
F		0.414613779		1.135263366		1.199804272
F		-0.957371469		-1.474041721		0.853222412
12
-187.24475565
Al		0.349627195		-0.599315078		1.740413717
Al		2.350503363		-1.788743854		-0.51945349
Al		-0.892884982		-1.83039774		-0.991956136
F		3.476158711		-0.496330793		-1.112779203
F		-1.834644851		-0.564535889		-1.886466621
F		2.736837387		-3.562341677		-0.491864592
F		-1.226307573		-3.613239185		-1.069222669
F		1.896719996		-1.414979332		1.2108214
F		0.831810164		-1.508492882		-1.489273665
F		0.108911751		-1.172361441		3.443268281
F		0.406285579		1.135156366		1.198591072
F		-0.961087869		-1.451681321		0.794490812
12
-187.24475565
Al		0.303225995		-0.599911078		1.733653917
Al		2.386456563		-1.768556054		-0.45332889
Al		-0.839066982		-1.84943254		-1.045002736
F		3.467190911		-0.497636593		-1.176021203
F		-1.861310451		-0.563687689		-1.828415821
F		2.706175387		-3.559464477		-0.533218192
F		-1.267409573		-3.617037985		-1.038323669
F		1.876967596		-1.437641132		1.266134
F		0.886993764		-1.507784082		-1.481234465
F		0.141241151		-1.171946241		3.447978081
F		0.397957379		1.135049366		1.197377872
F		-0.964804269		-1.429320921		0.735759212
12
-187.24475565
Al		0.256824795		-0.600507078		1.726894117
Al		2.422409763		-1.748368254		-0.38720429
Al		-0.785248982		-1.86846734		-1.098049336
F		3.458223111		-0.498942393		-1.239263203
F		-1.887976051		-0.562839489		-1.770365021
F		2.675513387		-3.556587277		-0.574571792
F		-1.308511573		-3.620836785		-1.007424669
F		1.857215196		-1.460302932		1.3214466
F		0.942177364		-1.507075282		-1.473195265
F		0.173570551		-1.171531041		3.452687881
F		0.389629179		1.134942366		1.196164672
F		-0.968520669		-1.406960521		0.677027612
12
-187.24475565
Al		0.210423595		-0.601103078		1.720134317
Al		2.458362963		-1.728180454		-0.32107969
Al		-0.731430982		-1.88750214		-1.151095936
F		3.449255311		-0.500248193		-1.302505203
F		-1.914641651		-0.561991289		-1.712314221
F		2.644851387		-3.553710077		-0.615925392
F		-1.349613573		-3.624635585		-0.976525669
F		1.837462796		-1.482964732		1.3767592
F		0.997360964		-1.506366482		-1.465156065
F		0.205899951		-1.171115841		3.457397681
F		0.381300979		1.134835366		1.194951472
F		-0.972237069		-1.384600121		0.618296012
12
-187.24475565
Al		0.164022395		-0.601699078		1.713374517
Al		2.494316163		-1.707992654		-0.25495509
Al		-0.677612982		-1.90653694		-1.204142536
F		3.440287511		-0.501553993		-1.365747203
F		-1.941307251		-0.561143089		-1.654263421
F		2.614189387		-3.550832877		-0.657278992
F		-1.390715573		-3.628434385		-0.945626669
F		1.817710396		-1.505626532		1.4320718
F		1.052544564		-1.505657682		-1.457116865
F		0.238229351		-1.170700641		3.462107481
F		0.372972779		1.134728366		1.193738272
F		-0.975953469		-1.362239721		0.559564412
