12
-186.39349496
Al		0.010912587		1.702864372		1.92530242
Al		2.593357696		2.724028225		1.827749575
Al		1.414726484		2.801414984		-0.757254454
F		1.078170978		3.008870536		3.017812863
F		-1.689077083		2.447290722		2.391539586
F		-0.669624271		0.208379334		2.80173503
F		1.933360953		0.968525593		1.953524265
F		2.737028545		1.607596653		-0.034785616
F		1.046401809		3.005877333		-2.536438212
F		1.641480494		4.020144987		0.714974867
F		4.213234168		3.122673977		2.55523598
F		0.095811809		1.68704941		0.002789893
