12
-186.39349496
Al		-0.011288213		1.687341172		1.98278622
Al		2.576358296		2.694805425		1.812242575
Al		1.400633284		2.767177384		-0.729700254
F		1.058934578		3.029899536		2.972241863
F		-1.661387283		2.506652922		2.337729986
F		-0.625496071		0.149685934		2.78948783
F		1.902372553		0.943467593		1.948651265
F		2.794040745		1.669934453		-0.044281816
F		1.056701809		3.013110733		-2.501222612
F		1.668054094		4.018875387		0.694494467
F		4.187640368		3.123372377		2.53135478
F		0.069433009		1.71552941		0.055077293
