12
-186.39349496
Al		-0.088991057		1.633009996		2.183979421
Al		2.516860396		2.592525625		1.757968075
Al		1.351307058		2.647345781		-0.633260553
F		0.991607152		3.103501019		2.812743332
F		-1.564473047		2.714420643		2.149396295
F		-0.47104736		-0.055740918		2.74662266
F		1.793913169		0.855764585		1.931595734
F		2.993583442		1.888116772		-0.077518554
F		1.092751714		3.038427652		-2.377968004
F		1.761061668		4.014431787		0.622812965
F		4.098062066		3.125816811		2.447770568
F		-0.0228928		1.815209368		0.238083205
