12
-186.39349496
Al		-0.055689813		1.656294772		2.09775382
Al		2.542359496		2.636359825		1.781228575
Al		1.372446884		2.698702184		-0.674591854
F		1.020461778		3.071957536		2.881099863
F		-1.606007683		2.625377322		2.230110786
F		-0.537239671		0.032299134		2.76499343
F		1.840395753		0.893351593		1.938905265
F		2.908065145		1.794610053		-0.063274216
F		1.077301809		3.027577533		-2.430791412
F		1.721201294		4.016336187		0.653533667
F		4.136452768		3.124769177		2.48359238
F		0.016675409		1.77248941		0.159652093
