12
-186.39349496
Al		-0.188894613		1.563155572		2.44265662
Al		2.440363096		2.461023025		1.688186575
Al		1.287887684		2.493276584		-0.509266654
F		0.905043378		3.198131536		2.607673863
F		-1.439868883		2.981550522		1.907253186
F		-0.272470471		-0.319861266		2.69151023
F		1.654465353		0.743003593		1.909667265
F		3.250138345		2.168636853		-0.120251416
F		1.139101809		3.070977933		-2.219497812
F		1.880642894		4.008718587		0.530651267
F		3.982889968		3.128959577		2.34030518
F		-0.141597391		1.94336941		0.473376493
