12
-186.39349496
Al		0.022012943		1.710625996		1.896560421
Al		2.601857396		2.738639625		1.835503075
Al		1.421773058		2.818533781		-0.771031553
F		1.087789152		2.998356019		3.040598332
F		-1.702922047		2.417609643		2.418444295
F		-0.69168836		0.237726082		2.80785866
F		1.948855169		0.981054585		1.955960734
F		2.708522442		1.576427772		-0.030037554
F		1.041251714		3.002260652		-2.554046004
F		1.628193668		4.020779787		0.725215965
F		4.226031066		3.122324811		2.567176568
F		0.1090012		1.672809368		-0.023353795
