12
-186.39349496
Al		0.010912543		1.702864396		1.925302321
Al		2.593357696		2.724028225		1.827749575
Al		1.414726458		2.801414981		-0.757254453
F		1.078170952		3.008870519		3.017812832
F		-1.689077147		2.447290743		2.391539495
F		-0.66962426		0.208379382		2.80173506
F		1.933360969		0.968525585		1.953524234
F		2.737028542		1.607596672		-0.034785654
F		1.046401714		3.005877352		-2.536438204
F		1.641480468		4.020144987		0.714975665
F		4.213234166		3.122674011		2.555235968
F		0.0958118		1.687049368		0.002789905
