12
-186.39349496
Al		-0.166693857		1.578678796		2.385172721
Al		2.457362496		2.490245825		1.703693575
Al		1.301980858		2.527514181		-0.536820853
F		0.924279752		3.177102519		2.653244832
F		-1.467558747		2.922188343		1.961062695
F		-0.31659866		-0.261167818		2.70375746
F		1.685453769		0.768061585		1.914540234
F		3.193126142		2.106299072		-0.110755254
F		1.128801714		3.063744552		-2.254713404
F		1.854069268		4.009988187		0.551130865
F		4.008483766		3.128261211		2.364186368
F		-0.1152186		1.914889368		0.421089105
