12
-186.39349496
Al		-0.188894657		1.563155596		2.442656521
Al		2.440363096		2.461023025		1.688186575
Al		1.287887658		2.493276581		-0.509266653
F		0.905043352		3.198131519		2.607673832
F		-1.439868947		2.981550543		1.907253095
F		-0.27247046		-0.319861218		2.69151026
F		1.654465369		0.743003585		1.909667234
F		3.250138342		2.168636872		-0.120251454
F		1.139101714		3.070977952		-2.219497804
F		1.880642868		4.008718587		0.530650265
F		3.982889966		3.128959611		2.340305168
F		-0.1415974		1.943369368		0.473376505
12
-186.39349496
Al		-0.177794257		1.570917196		2.413914621
Al		2.448862796		2.475634425		1.695940075
Al		1.294934258		2.510395381		-0.523043753
F		0.914661552		3.187617019		2.630459332
F		-1.453713847		2.951869443		1.934157895
F		-0.29453456		-0.290514518		2.69763386
F		1.669959569		0.755532585		1.912103734
F		3.221632242		2.137467972		-0.115503354
F		1.133951714		3.067361252		-2.237105604
F		1.867356068		4.009353387		0.540890565
F		3.995686866		3.128610411		2.352245768
F		-0.128408		1.929129368		0.447232805
12
-186.39349496
Al		-0.166693857		1.578678796		2.385172721
Al		2.457362496		2.490245825		1.703693575
Al		1.301980858		2.527514181		-0.536820853
F		0.924279752		3.177102519		2.653244832
F		-1.467558747		2.922188343		1.961062695
F		-0.31659866		-0.261167818		2.70375746
F		1.685453769		0.768061585		1.914540234
F		3.193126142		2.106299072		-0.110755254
F		1.128801714		3.063744552		-2.254713404
F		1.854069268		4.009988187		0.551130865
F		4.008483766		3.128261211		2.364186368
F		-0.1152186		1.914889368		0.421089105
12
-186.39349496
Al		-0.155593457		1.586440396		2.356430821
Al		2.465862196		2.504857225		1.711447075
Al		1.309027458		2.544632981		-0.550597953
F		0.933897952		3.166588019		2.676030332
F		-1.481403647		2.892507243		1.987967495
F		-0.33866276		-0.231821118		2.70988106
F		1.700947969		0.780590585		1.916976734
F		3.164620042		2.075130172		-0.106007154
F		1.123651714		3.060127852		-2.272321204
F		1.840782468		4.010622987		0.561371165
F		4.021280666		3.127912011		2.376126968
F		-0.1020292		1.900649368		0.394945405
12
-186.39349496
Al		-0.144493057		1.594201996		2.327688921
Al		2.474361896		2.519468625		1.719200575
Al		1.316074058		2.561751781		-0.564375053
F		0.943516152		3.156073519		2.698815832
F		-1.495248547		2.862826143		2.014872295
F		-0.36072686		-0.202474418		2.71600466
F		1.716442169		0.793119585		1.919413234
F		3.136113942		2.043961272		-0.101259054
F		1.118501714		3.056511152		-2.289929004
F		1.827495668		4.011257787		0.571611465
F		4.034077566		3.127562811		2.388067568
F		-0.0888398		1.886409368		0.368801705
12
-186.39349496
Al		-0.133392657		1.601963596		2.298947021
Al		2.482861596		2.534080025		1.726954075
Al		1.323120658		2.578870581		-0.578152153
F		0.953134352		3.145559019		2.721601332
F		-1.509093447		2.833145043		2.041777095
F		-0.38279096		-0.173127718		2.72212826
F		1.731936369		0.805648585		1.921849734
F		3.107607842		2.012792372		-0.096510954
F		1.113351714		3.052894452		-2.307536804
F		1.814208868		4.011892587		0.581851765
F		4.046874466		3.127213611		2.400008168
F		-0.0756504		1.872169368		0.342658005
12
-186.39349496
Al		-0.122292257		1.609725196		2.270205121
Al		2.491361296		2.548691425		1.734707575
Al		1.330167258		2.595989381		-0.591929253
F		0.962752552		3.135044519		2.744386832
F		-1.522938347		2.803463943		2.068681895
F		-0.40485506		-0.143781018		2.72825186
F		1.747430569		0.818177585		1.924286234
F		3.079101742		1.981623472		-0.091762854
F		1.108201714		3.049277752		-2.325144604
F		1.800922068		4.012527387		0.592092065
F		4.059671366		3.126864411		2.411948768
F		-0.062461		1.857929368		0.316514305
12
-186.39349496
Al		-0.111191857		1.617486796		2.241463221
Al		2.499860996		2.563302825		1.742461075
Al		1.337213858		2.613108181		-0.605706353
F		0.972370752		3.124530019		2.767172332
F		-1.536783247		2.773782843		2.095586695
F		-0.42691916		-0.114434318		2.73437546
F		1.762924769		0.830706585		1.926722734
F		3.050595642		1.950454572		-0.087014754
F		1.103051714		3.045661052		-2.342752404
F		1.787635268		4.013162187		0.602332365
F		4.072468266		3.126515211		2.423889368
F		-0.0492716		1.843689368		0.290370605
12
-186.39349496
Al		-0.100091457		1.625248396		2.212721321
Al		2.508360696		2.577914225		1.750214575
Al		1.344260458		2.630226981		-0.619483453
F		0.981988952		3.114015519		2.789957832
F		-1.550628147		2.744101743		2.122491495
F		-0.44898326		-0.085087618		2.74049906
F		1.778418969		0.843235585		1.929159234
F		3.022089542		1.919285672		-0.082266654
F		1.097901714		3.042044352		-2.360360204
F		1.774348468		4.013796987		0.612572665
F		4.085265166		3.126166011		2.435829968
F		-0.0360822		1.829449368		0.264226905
12
-186.39349496
Al		-0.088991057		1.633009996		2.183979421
Al		2.516860396		2.592525625		1.757968075
Al		1.351307058		2.647345781		-0.633260553
F		0.991607152		3.103501019		2.812743332
F		-1.564473047		2.714420643		2.149396295
F		-0.47104736		-0.055740918		2.74662266
F		1.793913169		0.855764585		1.931595734
F		2.993583442		1.888116772		-0.077518554
F		1.092751714		3.038427652		-2.377968004
F		1.761061668		4.014431787		0.622812965
F		4.098062066		3.125816811		2.447770568
F		-0.0228928		1.815209368		0.238083205
12
-186.39349496
Al		-0.077890657		1.640771596		2.155237521
Al		2.525360096		2.607137025		1.765721575
Al		1.358353658		2.664464581		-0.647037653
F		1.001225352		3.092986519		2.835528832
F		-1.578317947		2.684739543		2.176301095
F		-0.49311146		-0.026394218		2.75274626
F		1.809407369		0.868293585		1.934032234
F		2.965077342		1.856947872		-0.072770454
F		1.087601714		3.034810952		-2.395575804
F		1.747774868		4.015066587		0.633053265
F		4.110858966		3.125467611		2.459711168
F		-0.0097034		1.800969368		0.211939505
12
-186.39349496
Al		-0.066790257		1.648533196		2.126495621
Al		2.533859796		2.621748425		1.773475075
Al		1.365400258		2.681583381		-0.660814753
F		1.010843552		3.082472019		2.858314332
F		-1.592162847		2.655058443		2.203205895
F		-0.51517556		0.002952482		2.75886986
F		1.824901569		0.880822585		1.936468734
F		2.936571242		1.825778972		-0.068022354
F		1.082451714		3.031194252		-2.413183604
F		1.734488068		4.015701387		0.643293565
F		4.123655866		3.125118411		2.471651768
F		0.003486		1.786729368		0.185795805
12
-186.39349496
Al		-0.055689857		1.656294796		2.097753721
Al		2.542359496		2.636359825		1.781228575
Al		1.372446858		2.698702181		-0.674591853
F		1.020461752		3.071957519		2.881099832
F		-1.606007747		2.625377343		2.230110695
F		-0.53723966		0.032299182		2.76499346
F		1.840395769		0.893351585		1.938905234
F		2.908065142		1.794610072		-0.063274254
F		1.077301714		3.027577552		-2.430791404
F		1.721201268		4.016336187		0.653533865
F		4.136452766		3.124769211		2.483592368
F		0.0166754		1.772489368		0.159652105
12
-186.39349496
Al		-0.044589457		1.664056396		2.069011821
Al		2.550859196		2.650971225		1.788982075
Al		1.379493458		2.715820981		-0.688368953
F		1.030079952		3.061443019		2.903885332
F		-1.619852647		2.595696243		2.257015495
F		-0.55930376		0.061645882		2.77111706
F		1.855889969		0.905880585		1.941341734
F		2.879559042		1.763441172		-0.058526154
F		1.072151714		3.023960852		-2.448399204
F		1.707914468		4.016970987		0.663774165
F		4.149249666		3.124420011		2.495532968
F		0.0298648		1.758249368		0.133508405
12
-186.39349496
Al		-0.033489057		1.671817996		2.040269921
Al		2.559358896		2.665582625		1.796735575
Al		1.386540058		2.732939781		-0.702146053
F		1.039698152		3.050928519		2.926670832
F		-1.633697547		2.566015143		2.283920295
F		-0.58136786		0.090992582		2.77724066
F		1.871384169		0.918409585		1.943778234
F		2.851052942		1.732272272		-0.053778054
F		1.067001714		3.020344152		-2.466007004
F		1.694627668		4.017605787		0.674014465
F		4.162046566		3.124070811		2.507473568
F		0.0430542		1.744009368		0.107364705
12
-186.39349496
Al		-0.022388657		1.679579596		2.011528021
Al		2.567858596		2.680194025		1.804489075
Al		1.393586658		2.750058581		-0.715923153
F		1.049316352		3.040414019		2.949456332
F		-1.647542447		2.536334043		2.310825095
F		-0.60343196		0.120339282		2.78336426
F		1.886878369		0.930938585		1.946214734
F		2.822546842		1.701103372		-0.049029954
F		1.061851714		3.016727452		-2.483614804
F		1.681340868		4.018240587		0.684254765
F		4.174843466		3.123721611		2.519414168
F		0.0562436		1.729769368		0.081221005
12
-186.39349496
Al		-0.011288257		1.687341196		1.982786121
Al		2.576358296		2.694805425		1.812242575
Al		1.400633258		2.767177381		-0.729700253
F		1.058934552		3.029899519		2.972241832
F		-1.661387347		2.506652943		2.337729895
F		-0.62549606		0.149685982		2.78948786
F		1.902372569		0.943467585		1.948651234
F		2.794040742		1.669934472		-0.044281854
F		1.056701714		3.013110752		-2.501222604
F		1.668054068		4.018875387		0.694495065
F		4.187640366		3.123372411		2.531354768
F		0.069433		1.715529368		0.055077305
12
-186.39349496
Al		-0.000187857		1.695102796		1.954044221
Al		2.584857996		2.709416825		1.819996075
Al		1.407679858		2.784296181		-0.743477353
F		1.068552752		3.019385019		2.995027332
F		-1.675232247		2.476971843		2.364634695
F		-0.64756016		0.179032682		2.79561146
F		1.917866769		0.955996585		1.951087734
F		2.765534642		1.638765572		-0.039533754
F		1.051551714		3.009494052		-2.518830404
F		1.654767268		4.019510187		0.704735365
F		4.200437266		3.123023211		2.543295368
F		0.0826224		1.701289368		0.028933605
12
-186.39349496
Al		0.010912543		1.702864396		1.925302321
Al		2.593357696		2.724028225		1.827749575
Al		1.414726458		2.801414981		-0.757254453
F		1.078170952		3.008870519		3.017812832
F		-1.689077147		2.447290743		2.391539495
F		-0.66962426		0.208379382		2.80173506
F		1.933360969		0.968525585		1.953524234
F		2.737028542		1.607596672		-0.034785654
F		1.046401714		3.005877352		-2.536438204
F		1.641480468		4.020144987		0.714975665
F		4.213234166		3.122674011		2.555235968
F		0.0958118		1.687049368		0.002789905
12
-186.39349496
Al		0.022012943		1.710625996		1.896560421
Al		2.601857396		2.738639625		1.835503075
Al		1.421773058		2.818533781		-0.771031553
F		1.087789152		2.998356019		3.040598332
F		-1.702922047		2.417609643		2.418444295
F		-0.69168836		0.237726082		2.80785866
F		1.948855169		0.981054585		1.955960734
F		2.708522442		1.576427772		-0.030037554
F		1.041251714		3.002260652		-2.554046004
F		1.628193668		4.020779787		0.725215965
F		4.226031066		3.122324811		2.567176568
F		0.1090012		1.672809368		-0.023353795
