12
-186.39349496
Al		-0.188894613		1.563155572		2.44265662
Al		2.440363096		2.461023025		1.688186575
Al		1.287887684		2.493276584		-0.509266654
F		0.905043378		3.198131536		2.607673863
F		-1.439868883		2.981550522		1.907253186
F		-0.272470471		-0.319861266		2.69151023
F		1.654465353		0.743003593		1.909667265
F		3.250138345		2.168636853		-0.120251416
F		1.139101809		3.070977933		-2.219497812
F		1.880642894		4.008718587		0.530651267
F		3.982889968		3.128959577		2.34030518
F		-0.141597391		1.94336941		0.473376493
12
-186.39349496
Al		-0.166693813		1.578678772		2.38517282
Al		2.457362496		2.490245825		1.703693575
Al		1.301980884		2.527514184		-0.536820854
F		0.924279778		3.177102536		2.653244863
F		-1.467558683		2.922188322		1.961062786
F		-0.316598671		-0.261167866		2.70375743
F		1.685453753		0.768061593		1.914540265
F		3.193126145		2.106299053		-0.110755216
F		1.128801809		3.063744533		-2.254713412
F		1.854069294		4.009988187		0.551131667
F		4.008483768		3.128261177		2.36418638
F		-0.115218591		1.91488941		0.421089093
12
-186.39349496
Al		-0.144493013		1.594201972		2.32768902
Al		2.474361896		2.519468625		1.719200575
Al		1.316074084		2.561751784		-0.564375054
F		0.943516178		3.156073536		2.698815863
F		-1.495248483		2.862826122		2.014872386
F		-0.360726871		-0.202474466		2.71600463
F		1.716442153		0.793119593		1.919413265
F		3.136113945		2.043961253		-0.101259016
F		1.118501809		3.056511133		-2.289929012
F		1.827495694		4.011257787		0.571612067
F		4.034077568		3.127562777		2.38806758
F		-0.088839791		1.88640941		0.368801693
12
-186.39349496
Al		-0.122292213		1.609725172		2.27020522
Al		2.491361296		2.548691425		1.734707575
Al		1.330167284		2.595989384		-0.591929254
F		0.962752578		3.135044536		2.744386863
F		-1.522938283		2.803463922		2.068681986
F		-0.404855071		-0.143781066		2.72825183
F		1.747430553		0.818177593		1.924286265
F		3.079101745		1.981623453		-0.091762816
F		1.108201809		3.049277733		-2.325144612
F		1.800922094		4.012527387		0.592092467
F		4.059671368		3.126864377		2.41194878
F		-0.062460991		1.85792941		0.316514293
12
-186.39349496
Al		-0.100091413		1.625248372		2.21272142
Al		2.508360696		2.577914225		1.750214575
Al		1.344260484		2.630226984		-0.619483454
F		0.981988978		3.114015536		2.789957863
F		-1.550628083		2.744101722		2.122491586
F		-0.448983271		-0.085087666		2.74049903
F		1.778418953		0.843235593		1.929159265
F		3.022089545		1.919285653		-0.082266616
F		1.097901809		3.042044333		-2.360360212
F		1.774348494		4.013796987		0.612572867
F		4.085265168		3.126165977		2.43582998
F		-0.036082191		1.82944941		0.264226893
12
-186.39349496
Al		-0.077890613		1.640771572		2.15523762
Al		2.525360096		2.607137025		1.765721575
Al		1.358353684		2.664464584		-0.647037654
F		1.001225378		3.092986536		2.835528863
F		-1.578317883		2.684739522		2.176301186
F		-0.493111471		-0.026394266		2.75274623
F		1.809407353		0.868293593		1.934032265
F		2.965077345		1.856947853		-0.072770416
F		1.087601809		3.034810933		-2.395575812
F		1.747774894		4.015066587		0.633053267
F		4.110858968		3.125467577		2.45971118
F		-0.009703391		1.80096941		0.211939493
12
-186.39349496
Al		-0.055689813		1.656294772		2.09775382
Al		2.542359496		2.636359825		1.781228575
Al		1.372446884		2.698702184		-0.674591854
F		1.020461778		3.071957536		2.881099863
F		-1.606007683		2.625377322		2.230110786
F		-0.537239671		0.032299134		2.76499343
F		1.840395753		0.893351593		1.938905265
F		2.908065145		1.794610053		-0.063274216
F		1.077301809		3.027577533		-2.430791412
F		1.721201294		4.016336187		0.653533667
F		4.136452768		3.124769177		2.48359238
F		0.016675409		1.77248941		0.159652093
12
-186.39349496
Al		-0.033489013		1.671817972		2.04027002
Al		2.559358896		2.665582625		1.796735575
Al		1.386540084		2.732939784		-0.702146054
F		1.039698178		3.050928536		2.926670863
F		-1.633697483		2.566015122		2.283920386
F		-0.581367871		0.090992534		2.77724063
F		1.871384153		0.918409593		1.943778265
F		2.851052945		1.732272253		-0.053778016
F		1.067001809		3.020344133		-2.466007012
F		1.694627694		4.017605787		0.674014067
F		4.162046568		3.124070777		2.50747358
F		0.043054209		1.74400941		0.107364693
12
-186.39349496
Al		-0.011288213		1.687341172		1.98278622
Al		2.576358296		2.694805425		1.812242575
Al		1.400633284		2.767177384		-0.729700254
F		1.058934578		3.029899536		2.972241863
F		-1.661387283		2.506652922		2.337729986
F		-0.625496071		0.149685934		2.78948783
F		1.902372553		0.943467593		1.948651265
F		2.794040745		1.669934453		-0.044281816
F		1.056701809		3.013110733		-2.501222612
F		1.668054094		4.018875387		0.694494467
F		4.187640368		3.123372377		2.53135478
F		0.069433009		1.71552941		0.055077293
12
-186.39349496
Al		0.010912587		1.702864372		1.92530242
Al		2.593357696		2.724028225		1.827749575
Al		1.414726484		2.801414984		-0.757254454
F		1.078170978		3.008870536		3.017812863
F		-1.689077083		2.447290722		2.391539586
F		-0.669624271		0.208379334		2.80173503
F		1.933360953		0.968525593		1.953524265
F		2.737028545		1.607596653		-0.034785616
F		1.046401809		3.005877333		-2.536438212
F		1.641480494		4.020144987		0.714974867
F		4.213234168		3.122673977		2.55523598
F		0.095811809		1.68704941		0.002789893
