12
-187.24475565
Al		0.350999485		-0.599297458		1.740613637
Al		2.349780523		-1.788129244		-0.51835304
Al		-0.893248182		-1.8310263		-0.993214796
F		3.473806941		-0.493757353		-1.110668893
F		-1.836231421		-0.567159909		-1.889150681
F		2.733594777		-3.562363037		-0.489452392
F		-1.228726803		-3.613290545		-1.072459689
F		1.898496126		-1.414693222		1.21247132
F		0.831621744		-1.508495302		-1.489301115
F		0.112207261		-1.172319121		3.443748381
F		0.408481829		1.135184576		1.198911022
F		-0.958908259		-1.451916631		0.793417162
