12
-187.24475565
Al		0.351548401		-0.59929041		1.740693605
Al		2.349491387		-1.7878834		-0.51791286
Al		-0.893393462		-1.831277724		-0.99371826
F		3.472866233		-0.492727977		-1.109824769
F		-1.836866049		-0.568209517		-1.890224305
F		2.732297733		-3.562371581		-0.488487512
F		-1.229694495		-3.613311089		-1.073754497
F		1.899206578		-1.414578778		1.213131288
F		0.831546376		-1.50849627		-1.489312095
F		0.113525465		-1.172302193		3.443940421
F		0.409360329		1.13519586		1.199039002
F		-0.958036415		-1.452010755		0.792987702
