12
-187.24475565
Al		0.35168563		-0.599288648		1.740713597
Al		2.349419103		-1.787821939		-0.517802815
Al		-0.893429782		-1.83134058		-0.993844126
F		3.472631056		-0.492470633		-1.109613738
F		-1.837024706		-0.568471919		-1.890492711
F		2.731973472		-3.562373717		-0.488246292
F		-1.229936418		-3.613316225		-1.074078199
F		1.899384191		-1.414550167		1.21329628
F		0.831527534		-1.508496512		-1.48931484
F		0.113855016		-1.172297961		3.443988431
F		0.409579954		1.135198681		1.199070997
F		-0.957818454		-1.452034286		0.792880337
