12
-187.24475565
Al		0.352234546		-0.5992816		1.740793565
Al		2.349129967		-1.787576095		-0.517362635
Al		-0.893575062		-1.831592004		-0.99434759
F		3.471690348		-0.491441257		-1.108769614
F		-1.837659334		-0.569521527		-1.891566335
F		2.730676428		-3.562382261		-0.487281412
F		-1.23090411		-3.613336769		-1.075373007
F		1.900094643		-1.414435723		1.213956248
F		0.831452166		-1.50849748		-1.48932582
F		0.11517322		-1.172281033		3.444180471
F		0.410458454		1.135209965		1.199198977
F		-0.95694661		-1.45212841		0.792450877
