12
-187.24475565
Al		0.349901653		-0.599311554		1.740453701
Al		2.350358795		-1.788620932		-0.5192334
Al		-0.892957622		-1.830523452		-0.992207868
F		3.475688357		-0.495816105		-1.112357141
F		-1.834962165		-0.565060693		-1.887003433
F		2.736188865		-3.562345949		-0.491382152
F		-1.226791419		-3.613249457		-1.069870073
F		1.897075222		-1.41492211		1.211151384
F		0.83177248		-1.508493366		-1.489279155
F		0.109570853		-1.172352977		3.443364301
F		0.406724829		1.135162008		1.198655062
F		-0.960651947		-1.451728383		0.794276082
