12
-187.24475565
Al		0.352646233		-0.599276314		1.740853541
Al		2.348913115		-1.787391712		-0.5170325
Al		-0.893684022		-1.831780572		-0.994725188
F		3.470984817		-0.490669225		-1.108136521
F		-1.838135305		-0.570308733		-1.892371553
F		2.729703645		-3.562388669		-0.486557752
F		-1.231629879		-3.613352177		-1.076344113
F		1.900627482		-1.41434989		1.214451224
F		0.83139564		-1.508498206		-1.489334055
F		0.116161873		-1.172268337		3.444324501
F		0.411117329		1.135218428		1.199294962
F		-0.956292727		-1.452199003		0.792128782
