12
-187.24475565
Al		0.352920691		-0.59927279		1.740893525
Al		2.348768547		-1.78726879		-0.51681241
Al		-0.893756662		-1.831906284		-0.99497692
F		3.470514463		-0.490154537		-1.107714459
F		-1.838452619		-0.570833537		-1.892908365
F		2.729055123		-3.562392941		-0.486075312
F		-1.232113725		-3.613362449		-1.076991517
F		1.900982708		-1.414292668		1.214781208
F		0.831357956		-1.50849869		-1.489339545
F		0.116820975		-1.172259873		3.444420521
F		0.411556579		1.13522407		1.199358952
F		-0.955856805		-1.452246065		0.791914052
