12
-187.24475565
Al		0.353195149		-0.599269266		1.740933509
Al		2.348623979		-1.787145868		-0.51659232
Al		-0.893829302		-1.832031996		-0.995228652
F		3.470044109		-0.489639849		-1.107292397
F		-1.838769933		-0.571358341		-1.893445177
F		2.728406601		-3.562397213		-0.485592872
F		-1.232597571		-3.613372721		-1.077638921
F		1.901337934		-1.414235446		1.215111192
F		0.831320272		-1.508499174		-1.489345035
F		0.117480077		-1.172251409		3.444516541
F		0.411995829		1.135229712		1.199422942
F		-0.955420883		-1.452293127		0.791699322
