12
-187.24475565
Al		0.353332378		-0.599267504		1.740953501
Al		2.348551695		-1.787084407		-0.516482275
Al		-0.893865622		-1.832094852		-0.995354518
F		3.469808932		-0.489382505		-1.107081366
F		-1.83892859		-0.571620743		-1.893713583
F		2.72808234		-3.562399349		-0.485351652
F		-1.232839494		-3.613377857		-1.077962623
F		1.901515547		-1.414206835		1.215276184
F		0.83130143		-1.508499416		-1.48934778
F		0.117809628		-1.172247177		3.444564551
F		0.412215454		1.135232533		1.199454937
F		-0.955202922		-1.452316658		0.791591957
