12
-187.24475565
Al		0.350038882		-0.599309792		1.740473693
Al		2.350286511		-1.788559471		-0.519123355
Al		-0.892993942		-1.830586308		-0.992333734
F		3.47545318		-0.495558761		-1.11214611
F		-1.835120822		-0.565323095		-1.887271839
F		2.735864604		-3.562348085		-0.491140932
F		-1.227033342		-3.613254593		-1.070193775
F		1.897252835		-1.414893499		1.211316376
F		0.831753638		-1.508493608		-1.4892819
F		0.109900404		-1.172348745		3.443412311
F		0.406944454		1.135164829		1.198687057
F		-0.960433986		-1.451751914		0.794168717
