12
-187.24475565
Al		0.353881294		-0.599260456		1.741033469
Al		2.348262559		-1.786838563		-0.516042095
Al		-0.894010902		-1.832346276		-0.995857982
F		3.468868224		-0.488353129		-1.106237242
F		-1.839563218		-0.572670351		-1.894787207
F		2.726785296		-3.562407893		-0.484386772
F		-1.233807186		-3.613398401		-1.079257431
F		1.902225999		-1.414092391		1.215936152
F		0.831226062		-1.508500384		-1.48935876
F		0.119127832		-1.172230249		3.444756591
F		0.413093954		1.135243817		1.199582917
F		-0.954331078		-1.452410782		0.791162497
