12
-187.24475565
Al		0.354567439		-0.599251646		1.741133429
Al		2.347901139		-1.786531258		-0.51549187
Al		-0.894192502		-1.832660556		-0.996487312
F		3.467692339		-0.487066409		-1.105182087
F		-1.840356503		-0.573982361		-1.896129237
F		2.725163991		-3.562418573		-0.483180672
F		-1.235016801		-3.613424081		-1.080875941
F		1.903114064		-1.413949336		1.216761112
F		0.831131852		-1.508501594		-1.489372485
F		0.120775587		-1.172209089		3.444996641
F		0.414192079		1.135257922		1.199742892
F		-0.953241273		-1.452528437		0.790625672
