12
-187.24475565
Al		0.354704668		-0.599249884		1.741153421
Al		2.347828855		-1.786469797		-0.515381825
Al		-0.894228822		-1.832723412		-0.996613178
F		3.467457162		-0.486809065		-1.104971056
F		-1.84051516		-0.574244763		-1.896397643
F		2.72483973		-3.562420709		-0.482939452
F		-1.235258724		-3.613429217		-1.081199643
F		1.903291677		-1.413920725		1.216926104
F		0.83111301		-1.508501836		-1.48937523
F		0.121105138		-1.172204857		3.445044651
F		0.414411704		1.135260743		1.199774887
F		-0.953023312		-1.452551968		0.790518307
