12
-187.24475565
Al		0.354841897		-0.599248122		1.741173413
Al		2.347756571		-1.786408336		-0.51527178
Al		-0.894265142		-1.832786268		-0.996739044
F		3.467221985		-0.486551721		-1.104760025
F		-1.840673817		-0.574507165		-1.896666049
F		2.724515469		-3.562422845		-0.482698232
F		-1.235500647		-3.613434353		-1.081523345
F		1.90346929		-1.413892114		1.217091096
F		0.831094168		-1.508502078		-1.489377975
F		0.121434689		-1.172200625		3.445092661
F		0.414631329		1.135263564		1.199806882
F		-0.952805351		-1.452575499		0.790410942
