12
-187.24475565
Al		0.355116355		-0.599244598		1.741213397
Al		2.347612003		-1.786285414		-0.51505169
Al		-0.894337782		-1.83291198		-0.996990776
F		3.466751631		-0.486037033		-1.104337963
F		-1.840991131		-0.575031969		-1.897202861
F		2.723866947		-3.562427117		-0.482215792
F		-1.235984493		-3.613444625		-1.082170749
F		1.903824516		-1.413834892		1.21742108
F		0.831056484		-1.508502562		-1.489383465
F		0.122093791		-1.172192161		3.445188681
F		0.415070579		1.135269206		1.199870872
F		-0.952369429		-1.452622561		0.790196212
