12
-187.24475565
Al		0.355253584		-0.599242836		1.741233389
Al		2.347539719		-1.786223953		-0.514941645
Al		-0.894374102		-1.832974836		-0.997116642
F		3.466516454		-0.485779689		-1.104126932
F		-1.841149788		-0.575294371		-1.897471267
F		2.723542686		-3.562429253		-0.481974572
F		-1.236226416		-3.613449761		-1.082494451
F		1.904002129		-1.413806281		1.217586072
F		0.831037642		-1.508502804		-1.48938621
F		0.122423342		-1.172187929		3.445236691
F		0.415290204		1.135272027		1.199902867
F		-0.952151468		-1.452646092		0.790088847
