12
-187.24475565
Al		0.355390813		-0.599241074		1.741253381
Al		2.347467435		-1.786162492		-0.5148316
Al		-0.894410422		-1.833037692		-0.997242508
F		3.466281277		-0.485522345		-1.103915901
F		-1.841308445		-0.575556773		-1.897739673
F		2.723218425		-3.562431389		-0.481733352
F		-1.236468339		-3.613454897		-1.082818153
F		1.904179742		-1.41377767		1.217751064
F		0.8310188		-1.508503046		-1.489388955
F		0.122752893		-1.172183697		3.445284701
F		0.415509829		1.135274848		1.199934862
F		-0.951933507		-1.452669623		0.789981482
