12
-187.24475565
Al		0.355665271		-0.59923755		1.741293365
Al		2.347322867		-1.78603957		-0.51461151
Al		-0.894483062		-1.833163404		-0.99749424
F		3.465810923		-0.485007657		-1.103493839
F		-1.841625759		-0.576081577		-1.898276485
F		2.722569903		-3.562435661		-0.481250912
F		-1.236952185		-3.613465169		-1.083465557
F		1.904534968		-1.413720448		1.218081048
F		0.830981116		-1.50850353		-1.489394445
F		0.123411995		-1.172175233		3.445380721
F		0.415949079		1.13528049		1.199998852
F		-0.951497585		-1.452716685		0.789766752
