12
-187.24475565
Al		0.356214187		-0.599230502		1.741373333
Al		2.347033731		-1.785793726		-0.51417133
Al		-0.894628342		-1.833414828		-0.997997704
F		3.464870215		-0.483978281		-1.102649715
F		-1.842260387		-0.577131185		-1.899350109
F		2.721272859		-3.562444205		-0.480286032
F		-1.237919877		-3.613485713		-1.084760365
F		1.90524542		-1.413606004		1.218741016
F		0.830905748		-1.508504498		-1.489405425
F		0.124730199		-1.172158305		3.445572761
F		0.416827579		1.135291774		1.200126832
F		-0.950625741		-1.452810809		0.789337292
