12
-187.24475565
Al		0.35031334		-0.599306268		1.740513677
Al		2.350141943		-1.788436549		-0.518903265
Al		-0.893066582		-1.83071202		-0.992585466
F		3.474982826		-0.495044073		-1.111724048
F		-1.835438136		-0.565847899		-1.887808651
F		2.735216082		-3.562352357		-0.490658492
F		-1.227517188		-3.613264865		-1.070841179
F		1.897608061		-1.414836277		1.21164636
F		0.831715954		-1.508494092		-1.48928739
F		0.110559506		-1.172340281		3.443508331
F		0.407383704		1.135170471		1.198751047
F		-0.959998064		-1.451798976		0.793953987
