12
-187.24475565
Al		0.356488645		-0.599226978		1.741413317
Al		2.346889163		-1.785670804		-0.51395124
Al		-0.894700982		-1.83354054		-0.998249436
F		3.464399861		-0.483463593		-1.102227653
F		-1.842577701		-0.577655989		-1.899886921
F		2.720624337		-3.562448477		-0.479803592
F		-1.238403723		-3.613495985		-1.085407769
F		1.905600646		-1.413548782		1.219071
F		0.830868064		-1.508504982		-1.489410915
F		0.125389301		-1.172149841		3.445668781
F		0.417266829		1.135297416		1.200190822
F		-0.950189819		-1.452857871		0.789122562
