12
-187.24475565
Al		0.356900332		-0.599221692		1.741473293
Al		2.346672311		-1.785486421		-0.513621105
Al		-0.894809942		-1.833729108		-0.998627034
F		3.46369433		-0.482691561		-1.10159456
F		-1.843053672		-0.578443195		-1.900692139
F		2.719651554		-3.562454885		-0.479079932
F		-1.239129492		-3.613511393		-1.086378875
F		1.906133485		-1.413462949		1.219565976
F		0.830811538		-1.508505708		-1.48941915
F		0.126377954		-1.172137145		3.445812811
F		0.417925704		1.135305879		1.200286807
F		-0.949535936		-1.452928464		0.788800467
