12
-187.24475565
Al		0.357449248		-0.599214644		1.741553261
Al		2.346383175		-1.785240577		-0.513180925
Al		-0.894955222		-1.833980532		-0.999130498
F		3.462753622		-0.481662185		-1.100750436
F		-1.8436883		-0.579492803		-1.901765763
F		2.71835451		-3.562463429		-0.478115052
F		-1.240097184		-3.613531937		-1.087673683
F		1.906843937		-1.413348505		1.220225944
F		0.83073617		-1.508506676		-1.48943013
F		0.127696158		-1.172120217		3.446004851
F		0.418804204		1.135317163		1.200414787
F		-0.948664092		-1.453022588		0.788371007
