12
-187.24475565
Al		0.358135393		-0.599205834		1.741653221
Al		2.346021755		-1.784933272		-0.5126307
Al		-0.895136822		-1.834294812		-0.999759828
F		3.461577737		-0.480375465		-1.099695281
F		-1.844481585		-0.580804813		-1.903107793
F		2.716733205		-3.562474109		-0.476908952
F		-1.241306799		-3.613557617		-1.089292193
F		1.907732002		-1.41320545		1.221050904
F		0.83064196		-1.508507886		-1.489443855
F		0.129343913		-1.172099057		3.446244901
F		0.419902329		1.135331268		1.200574762
F		-0.947574287		-1.453140243		0.787834182
