12
-187.24475565
Al		0.358272622		-0.599204072		1.741673213
Al		2.345949471		-1.784871811		-0.512520655
Al		-0.895173142		-1.834357668		-0.999885694
F		3.46134256		-0.480118121		-1.09948425
F		-1.844640242		-0.581067215		-1.903376199
F		2.716408944		-3.562476245		-0.476667732
F		-1.241548722		-3.613562753		-1.089615895
F		1.907909615		-1.413176839		1.221215896
F		0.830623118		-1.508508128		-1.4894466
F		0.129673464		-1.172094825		3.446292911
F		0.420121954		1.135334089		1.200606757
F		-0.947356326		-1.453163774		0.787726817
