12
-187.24475565
Al		0.35854708		-0.599200548		1.741713197
Al		2.345804903		-1.784748889		-0.512300565
Al		-0.895245782		-1.83448338		-1.000137426
F		3.460872206		-0.479603433		-1.099062188
F		-1.844957556		-0.581592019		-1.903913011
F		2.715760422		-3.562480517		-0.476185292
F		-1.242032568		-3.613573025		-1.090263299
F		1.908264841		-1.413119617		1.22154588
F		0.830585434		-1.508508612		-1.48945209
F		0.130332566		-1.172086361		3.446388931
F		0.420561204		1.135339731		1.200670747
F		-0.946920404		-1.453210836		0.787512087
