12
-187.24475565
Al		0.358684309		-0.599198786		1.741733189
Al		2.345732619		-1.784687428		-0.51219052
Al		-0.895282102		-1.834546236		-1.000263292
F		3.460637029		-0.479346089		-1.098851157
F		-1.845116213		-0.581854421		-1.904181417
F		2.715436161		-3.562482653		-0.475944072
F		-1.242274491		-3.613578161		-1.090587001
F		1.908442454		-1.413091006		1.221710872
F		0.830566592		-1.508508854		-1.489454835
F		0.130662117		-1.172082129		3.446436941
F		0.420780829		1.135342552		1.200702742
F		-0.946702443		-1.453234367		0.787404722
