12
-187.24475565
Al		0.358821538		-0.599197024		1.741753181
Al		2.345660335		-1.784625967		-0.512080475
Al		-0.895318422		-1.834609092		-1.000389158
F		3.460401852		-0.479088745		-1.098640126
F		-1.84527487		-0.582116823		-1.904449823
F		2.7151119		-3.562484789		-0.475702852
F		-1.242516414		-3.613583297		-1.090910703
F		1.908620067		-1.413062395		1.221875864
F		0.83054775		-1.508509096		-1.48945758
F		0.130991668		-1.172077897		3.446484951
F		0.421000454		1.135345373		1.200734737
F		-0.946484482		-1.453257898		0.787297357
