12
-187.24475565
Al		0.359507683		-0.599188214		1.741853141
Al		2.345298915		-1.784318662		-0.51153025
Al		-0.895500022		-1.834923372		-1.001018488
F		3.459225967		-0.477802025		-1.097584971
F		-1.846068155		-0.583428833		-1.905791853
F		2.713490595		-3.562495469		-0.474496752
F		-1.243726029		-3.613608977		-1.092529213
F		1.909508132		-1.41291934		1.222700824
F		0.83045354		-1.508510306		-1.489471305
F		0.132639423		-1.172056737		3.446725001
F		0.422098579		1.135359478		1.200894712
F		-0.945394677		-1.453375553		0.786760532
