12
-187.24475565
Al		0.35991937		-0.599182928		1.741913117
Al		2.345082063		-1.784134279		-0.511200115
Al		-0.895608982		-1.83511194		-1.001396086
F		3.458520436		-0.477029993		-1.096951878
F		-1.846544126		-0.584216039		-1.906597071
F		2.712517812		-3.562501877		-0.473773092
F		-1.244451798		-3.613624385		-1.093500319
F		1.910040971		-1.412833507		1.2231958
F		0.830397014		-1.508511032		-1.48947954
F		0.133628076		-1.172044041		3.446869031
F		0.422757454		1.135367941		1.200990697
F		-0.944740794		-1.453446146		0.786438437
