12
-187.24475565
Al		0.360331057		-0.599177642		1.741973093
Al		2.344865211		-1.783949896		-0.51086998
Al		-0.895717942		-1.835300508		-1.001773684
F		3.457814905		-0.476257961		-1.096318785
F		-1.847020097		-0.585003245		-1.907402289
F		2.711545029		-3.562508285		-0.473049432
F		-1.245177567		-3.613639793		-1.094471425
F		1.91057381		-1.412747674		1.223690776
F		0.830340488		-1.508511758		-1.489487775
F		0.134616729		-1.172031345		3.447013061
F		0.423416329		1.135376404		1.201086682
F		-0.944086911		-1.453516739		0.786116342
