12
-187.24475565
Al		0.360468286		-0.59917588		1.741993085
Al		2.344792927		-1.783888435		-0.510759935
Al		-0.895754262		-1.835363364		-1.00189955
F		3.457579728		-0.476000617		-1.096107754
F		-1.847178754		-0.585265647		-1.907670695
F		2.711220768		-3.562510421		-0.472808212
F		-1.24541949		-3.613644929		-1.094795127
F		1.910751423		-1.412719063		1.223855768
F		0.830321646		-1.508512		-1.48949052
F		0.13494628		-1.172027113		3.447061071
F		0.423635954		1.135379225		1.201118677
F		-0.94386895		-1.45354027		0.786008977
