12
-187.24475565
Al		0.360742744		-0.599172356		1.742033069
Al		2.344648359		-1.783765513		-0.510539845
Al		-0.895826902		-1.835489076		-1.002151282
F		3.457109374		-0.475485929		-1.095685692
F		-1.847496068		-0.585790451		-1.908207507
F		2.710572246		-3.562514693		-0.472325772
F		-1.245903336		-3.613655201		-1.095442531
F		1.911106649		-1.412661841		1.224185752
F		0.830283962		-1.508512484		-1.48949601
F		0.135605382		-1.172018649		3.447157091
F		0.424075204		1.135384867		1.201182667
F		-0.943433028		-1.453587332		0.785794247
