12
-187.24475565
Al		0.361977805		-0.599156498		1.742212997
Al		2.343997803		-1.783212364		-0.50954944
Al		-0.896153782		-1.83605478		-1.003284076
F		3.454992781		-0.473169833		-1.093786413
F		-1.848923981		-0.588152069		-1.910623161
F		2.707653897		-3.562533917		-0.470154792
F		-1.248080643		-3.613701425		-1.098355849
F		1.912705166		-1.412404342		1.22567068
F		0.830114384		-1.508514662		-1.489520715
F		0.138571341		-1.171980561		3.447589181
F		0.426051829		1.135410256		1.201470622
F		-0.941471379		-1.453799111		0.784827962
