12
-187.24475565
Al		0.362115034		-0.599154736		1.742232989
Al		2.343925519		-1.783150903		-0.509439395
Al		-0.896190102		-1.836117636		-1.003409942
F		3.454757604		-0.472912489		-1.093575382
F		-1.849082638		-0.588414471		-1.910891567
F		2.707329636		-3.562536053		-0.469913572
F		-1.248322566		-3.613706561		-1.098679551
F		1.912882779		-1.412375731		1.225835672
F		0.830095542		-1.508514904		-1.48952346
F		0.138900892		-1.171976329		3.447637191
F		0.426271454		1.135413077		1.201502617
F		-0.941253418		-1.453822642		0.784720597
