12
-187.24475565
Al		0.36266395		-0.599147688		1.742312957
Al		2.343636383		-1.782905059		-0.508999215
Al		-0.896335382		-1.83636906		-1.003913406
F		3.453816896		-0.471883113		-1.092731258
F		-1.849717266		-0.589464079		-1.911965191
F		2.706032592		-3.562544597		-0.468948692
F		-1.249290258		-3.613727105		-1.099974359
F		1.913593231		-1.412261287		1.22649564
F		0.830020174		-1.508515872		-1.48953444
F		0.140219096		-1.171959401		3.447829231
F		0.427149954		1.135424361		1.201630597
F		-0.940381574		-1.453916766		0.784291137
