12
-187.24475565
Al		0.363075637		-0.599142402		1.742372933
Al		2.343419531		-1.782720676		-0.50866908
Al		-0.896444342		-1.836557628		-1.004291004
F		3.453111365		-0.471111081		-1.092098165
F		-1.850193237		-0.590251285		-1.912770409
F		2.705059809		-3.562551005		-0.468225032
F		-1.250016027		-3.613742513		-1.100945465
F		1.91412607		-1.412175454		1.226990616
F		0.829963648		-1.508516598		-1.489542675
F		0.141207749		-1.171946705		3.447973261
F		0.427808829		1.135432824		1.201726582
F		-0.939727691		-1.453987359		0.783969042
