12
-187.24475565
Al		0.363212866		-0.59914064		1.742392925
Al		2.343347247		-1.782659215		-0.508559035
Al		-0.896480662		-1.836620484		-1.00441687
F		3.452876188		-0.470853737		-1.091887134
F		-1.850351894		-0.590513687		-1.913038815
F		2.704735548		-3.562553141		-0.467983812
F		-1.25025795		-3.613747649		-1.101269167
F		1.914303683		-1.412146843		1.227155608
F		0.829944806		-1.50851684		-1.48954542
F		0.1415373		-1.171942473		3.448021271
F		0.428028454		1.135435645		1.201758577
F		-0.93950973		-1.45401089		0.783861677
