12
-187.24475565
Al		0.348117676		-0.59933446		1.740193805
Al		2.351298487		-1.789419925		-0.520663985
Al		-0.892485462		-1.829706324		-0.99057161
F		3.478745658		-0.499161577		-1.115100544
F		-1.832899624		-0.561649467		-1.883514155
F		2.740404258		-3.562318181		-0.494518012
F		-1.22364642		-3.613182689		-1.065661947
F		1.894766253		-1.415294053		1.209006488
F		0.832017426		-1.50849022		-1.48924347
F		0.10528669		-1.172407993		3.442740171
F		0.403869704		1.135125335		1.198239127
F		-0.96348544		-1.45142248		0.795671827
