12
-187.24475565
Al		0.347705989		-0.599339746		1.740133829
Al		2.351515339		-1.789604308		-0.52099412
Al		-0.892376502		-1.829517756		-0.990194012
F		3.479451189		-0.499933609		-1.115733637
F		-1.832423653		-0.560862261		-1.882708937
F		2.741377041		-3.562311773		-0.495241672
F		-1.222920651		-3.613167281		-1.064690841
F		1.894233414		-1.415379886		1.208511512
F		0.832073952		-1.508489494		-1.489235235
F		0.104298037		-1.172420689		3.442596141
F		0.403210829		1.135116872		1.198143142
F		-0.964139323		-1.451351887		0.795993922
