12
-187.24475565
Al		0.34756876		-0.599341508		1.740113837
Al		2.351587623		-1.789665769		-0.521104165
Al		-0.892340182		-1.8294549		-0.990068146
F		3.479686366		-0.500190953		-1.115944668
F		-1.832264996		-0.560599859		-1.882440531
F		2.741701302		-3.562309637		-0.495482892
F		-1.222678728		-3.613162145		-1.064367139
F		1.894055801		-1.415408497		1.20834652
F		0.832092794		-1.508489252		-1.48923249
F		0.103968486		-1.172424921		3.442548131
F		0.402991204		1.135114051		1.198111147
F		-0.964357284		-1.451328356		0.796101287
