12
-187.24475565
Al		0.347019844		-0.599348556		1.740033869
Al		2.351876759		-1.789911613		-0.521544345
Al		-0.892194902		-1.829203476		-0.989564682
F		3.480627074		-0.501220329		-1.116788792
F		-1.831630368		-0.559550251		-1.881366907
F		2.742998346		-3.562301093		-0.496447772
F		-1.221711036		-3.613141601		-1.063072331
F		1.893345349		-1.415522941		1.207686552
F		0.832168162		-1.508488284		-1.48922151
F		0.102650282		-1.172441849		3.442356091
F		0.402112704		1.135102767		1.197983167
F		-0.965229128		-1.451234232		0.796530747
