12
-187.24475565
Al		0.346882615		-0.599350318		1.740013877
Al		2.351949043		-1.789973074		-0.52165439
Al		-0.892158582		-1.82914062		-0.989438816
F		3.480862251		-0.501477673		-1.116999823
F		-1.831471711		-0.559287849		-1.881098501
F		2.743322607		-3.562298957		-0.496688992
F		-1.221469113		-3.613136465		-1.062748629
F		1.893167736		-1.415551552		1.20752156
F		0.832187004		-1.508488042		-1.489218765
F		0.102320731		-1.172446081		3.442308081
F		0.401893079		1.135099946		1.197951172
F		-0.965447089		-1.451210701		0.796638112
