12
-187.24475565
Al		0.346745386		-0.59935208		1.739993885
Al		2.352021327		-1.790034535		-0.521764435
Al		-0.892122262		-1.829077764		-0.98931295
F		3.481097428		-0.501735017		-1.117210854
F		-1.831313054		-0.559025447		-1.880830095
F		2.743646868		-3.562296821		-0.496930212
F		-1.22122719		-3.613131329		-1.062424927
F		1.892990123		-1.415580163		1.207356568
F		0.832205846		-1.5084878		-1.48921602
F		0.10199118		-1.172450313		3.442260071
F		0.401673454		1.135097125		1.197919177
F		-0.96566505		-1.45118717		0.796745477
