12
-187.24475565
Al		0.34619647		-0.599359128		1.739913917
Al		2.352310463		-1.790280379		-0.522204615
Al		-0.891976982		-1.82882634		-0.988809486
F		3.482038136		-0.502764393		-1.118054978
F		-1.830678426		-0.557975839		-1.879756471
F		2.744943912		-3.562288277		-0.497895092
F		-1.220259498		-3.613110785		-1.061130119
F		1.892279671		-1.415694607		1.2066966
F		0.832281214		-1.508486832		-1.48920504
F		0.100672976		-1.172467241		3.442068031
F		0.400794954		1.135085841		1.197791197
F		-0.966536894		-1.451093046		0.797174937
