12
-187.24475565
Al		0.344275264		-0.599383796		1.739634029
Al		2.353322439		-1.791140833		-0.523745245
Al		-0.891468502		-1.827946356		-0.987047362
F		3.485330614		-0.506367209		-1.121009412
F		-1.828457228		-0.554302211		-1.875998787
F		2.749483566		-3.562258373		-0.501272172
F		-1.216872576		-3.613038881		-1.056598291
F		1.889793089		-1.416095161		1.204386712
F		0.832545002		-1.508483444		-1.48916661
F		0.096059262		-1.172526489		3.441395891
F		0.397720204		1.135046347		1.197343267
F		-0.969588348		-1.450763612		0.798678047
