12
-187.24475565
Al		0.344000806		-0.59938732		1.739594045
Al		2.353467007		-1.791263755		-0.523965335
Al		-0.891395862		-1.827820644		-0.98679563
F		3.485800968		-0.506881897		-1.121431474
F		-1.828139914		-0.553777407		-1.875461975
F		2.750132088		-3.562254101		-0.501754612
F		-1.21638873		-3.613028609		-1.055950887
F		1.889437863		-1.416152383		1.204056728
F		0.832582686		-1.50848296		-1.48916112
F		0.09540016		-1.172534953		3.441299871
F		0.397280954		1.135040705		1.197279277
F		-0.97002427		-1.45071655		0.798892777
