12
-187.24475565
Al		0.342902974		-0.599401416		1.739434109
Al		2.354045279		-1.791755443		-0.524845695
Al		-0.891105302		-1.827317796		-0.985788702
F		3.487682384		-0.508940649		-1.123119722
F		-1.826870658		-0.551678191		-1.873314727
F		2.752726176		-3.562237013		-0.503684372
F		-1.214453346		-3.612987521		-1.053361271
F		1.888016959		-1.416381271		1.202736792
F		0.832733422		-1.508481024		-1.48913916
F		0.092763752		-1.172568809		3.440915791
F		0.395523954		1.135018137		1.197023317
F		-0.971767958		-1.450528302		0.799751697
