12
-187.24475565
Al		0.3420796		-0.599411988		1.739314157
Al		2.354478983		-1.792124209		-0.525505965
Al		-0.890887382		-1.82694066		-0.985033506
F		3.489093446		-0.510484713		-1.124385908
F		-1.825918716		-0.550103779		-1.871704291
F		2.754671742		-3.562224197		-0.505131692
F		-1.213001808		-3.612956705		-1.051419059
F		1.886951281		-1.416552937		1.20174684
F		0.832846474		-1.508479572		-1.48912269
F		0.090786446		-1.172594201		3.440627731
F		0.394206204		1.135001211		1.196831347
F		-0.973075724		-1.450387116		0.800395887
