12
-187.24475565
Al		0.341942371		-0.59941375		1.739294165
Al		2.354551267		-1.79218567		-0.52561601
Al		-0.890851062		-1.826877804		-0.98490764
F		3.489328623		-0.510742057		-1.124596939
F		-1.825760059		-0.549841377		-1.871435885
F		2.754996003		-3.562222061		-0.505372912
F		-1.212759885		-3.612951569		-1.051095357
F		1.886773668		-1.416581548		1.201581848
F		0.832865316		-1.50847933		-1.489119945
F		0.090456895		-1.172598433		3.440579721
F		0.393986579		1.13499839		1.196799352
F		-0.973293685		-1.450363585		0.800503252
