12
-187.24475565
Al		0.341805142		-0.599415512		1.739274173
Al		2.354623551		-1.792247131		-0.525726055
Al		-0.890814742		-1.826814948		-0.984781774
F		3.4895638		-0.510999401		-1.12480797
F		-1.825601402		-0.549578975		-1.871167479
F		2.755320264		-3.562219925		-0.505614132
F		-1.212517962		-3.612946433		-1.050771655
F		1.886596055		-1.416610159		1.201416856
F		0.832884158		-1.508479088		-1.4891172
F		0.090127344		-1.172602665		3.440531711
F		0.393766954		1.134995569		1.196767357
F		-0.973511646		-1.450340054		0.800610617
