12
-187.24475565
Al		0.341393455		-0.599420798		1.739214197
Al		2.354840403		-1.792431514		-0.52605619
Al		-0.890705782		-1.82662638		-0.984404176
F		3.490269331		-0.511771433		-1.125441063
F		-1.825125431		-0.548791769		-1.870362261
F		2.756293047		-3.562213517		-0.506337792
F		-1.211792193		-3.612931025		-1.049800549
F		1.886063216		-1.416695992		1.20092188
F		0.832940684		-1.508478362		-1.489108965
F		0.089138691		-1.172615361		3.440387681
F		0.393108079		1.134987106		1.196671372
F		-0.974165529		-1.450269461		0.800932712
