12
-187.24475565
Al		0.341118997		-0.599424322		1.739174213
Al		2.354984971		-1.792554436		-0.52627628
Al		-0.890633142		-1.826500668		-0.984152444
F		3.490739685		-0.512286121		-1.125863125
F		-1.824808117		-0.548266965		-1.869825449
F		2.756941569		-3.562209245		-0.506820232
F		-1.211308347		-3.612920753		-1.049153145
F		1.88570799		-1.416753214		1.200591896
F		0.832978368		-1.508477878		-1.489103475
F		0.088479589		-1.172623825		3.440291661
F		0.392668829		1.134981464		1.196607382
F		-0.974601451		-1.450222399		0.801147442
