12
-187.24475565
Al		0.340570081		-0.59943137		1.739094245
Al		2.355274107		-1.79280028		-0.52671646
Al		-0.890487862		-1.826249244		-0.98364898
F		3.491680393		-0.513315497		-1.126707249
F		-1.824173489		-0.547217357		-1.868751825
F		2.758238613		-3.562200701		-0.507785112
F		-1.210340655		-3.612900209		-1.047858337
F		1.884997538		-1.416867658		1.199931928
F		0.833053736		-1.50847691		-1.489092495
F		0.087161385		-1.172640753		3.440099621
F		0.391790329		1.13497018		1.196479402
F		-0.975473295		-1.450128275		0.801576902
