12
-187.24475565
Al		0.340295623		-0.599434894		1.739054261
Al		2.355418675		-1.792923202		-0.52693655
Al		-0.890415222		-1.826123532		-0.983397248
F		3.492150747		-0.513830185		-1.127129311
F		-1.823856175		-0.546692553		-1.868215013
F		2.758887135		-3.562196429		-0.508267552
F		-1.209856809		-3.612889937		-1.047210933
F		1.884642312		-1.41692488		1.199601944
F		0.83309142		-1.508476426		-1.489087005
F		0.086502283		-1.172649217		3.440003601
F		0.391351079		1.134964538		1.196415412
F		-0.975909217		-1.450081213		0.801791632
