12
-187.24475565
Al		0.340158394		-0.599436656		1.739034269
Al		2.355490959		-1.792984663		-0.527046595
Al		-0.890378902		-1.826060676		-0.983271382
F		3.492385924		-0.514087529		-1.127340342
F		-1.823697518		-0.546430151		-1.867946607
F		2.759211396		-3.562194293		-0.508508772
F		-1.209614886		-3.612884801		-1.046887231
F		1.884464699		-1.416953491		1.199436952
F		0.833110262		-1.508476184		-1.48908426
F		0.086172732		-1.172653449		3.439955591
F		0.391131454		1.134961717		1.196383417
F		-0.976127178		-1.450057682		0.801898997
