12
-187.24475565
Al		0.339883936		-0.59944018		1.738994285
Al		2.355635527		-1.793107585		-0.527266685
Al		-0.890306262		-1.825934964		-0.98301965
F		3.492856278		-0.514602217		-1.127762404
F		-1.823380204		-0.545905347		-1.867409795
F		2.759859918		-3.562190021		-0.508991212
F		-1.20913104		-3.612874529		-1.046239827
F		1.884109473		-1.417010713		1.199106968
F		0.833147946		-1.5084757		-1.48907877
F		0.08551363		-1.172661913		3.439859571
F		0.390692204		1.134956075		1.196319427
F		-0.9765631		-1.45001062		0.802113727
