12
-187.24475565
Al		0.339472249		-0.599445466		1.738934309
Al		2.355852379		-1.793291968		-0.52759682
Al		-0.890197302		-1.825746396		-0.982642052
F		3.493561809		-0.515374249		-1.128395497
F		-1.822904233		-0.545118141		-1.866604577
F		2.760832701		-3.562183613		-0.509714872
F		-1.208405271		-3.612859121		-1.045268721
F		1.883576634		-1.417096546		1.198611992
F		0.833204472		-1.508474974		-1.489070535
F		0.084524977		-1.172674609		3.439715541
F		0.390033329		1.134947612		1.196223442
F		-0.977216983		-1.449940027		0.802435822
