12
-187.24475565
Al		0.339197791		-0.59944899		1.738894325
Al		2.355996947		-1.79341489		-0.52781691
Al		-0.890124662		-1.825620684		-0.98239032
F		3.494032163		-0.515888937		-1.128817559
F		-1.822586919		-0.544593337		-1.866067765
F		2.761481223		-3.562179341		-0.510197312
F		-1.207921425		-3.612848849		-1.044621317
F		1.883221408		-1.417153768		1.198282008
F		0.833242156		-1.50847449		-1.489065045
F		0.083865875		-1.172683073		3.439619521
F		0.389594079		1.13494197		1.196159452
F		-0.977652905		-1.449892965		0.802650552
