12
-187.24475565
Al		0.338923333		-0.599452514		1.738854341
Al		2.356141515		-1.793537812		-0.528037
Al		-0.890052022		-1.825494972		-0.982138588
F		3.494502517		-0.516403625		-1.129239621
F		-1.822269605		-0.544068533		-1.865530953
F		2.762129745		-3.562175069		-0.510679752
F		-1.207437579		-3.612838577		-1.043973913
F		1.882866182		-1.41721099		1.197952024
F		0.83327984		-1.508474006		-1.489059555
F		0.083206773		-1.172691537		3.439523501
F		0.389154829		1.134936328		1.196095462
F		-0.978088827		-1.449845903		0.802865282
