12
-187.24475565
Al		0.33796273		-0.599464848		1.738714397
Al		2.356647503		-1.793968039		-0.528807315
Al		-0.889797782		-1.82505498		-0.981257526
F		3.496148756		-0.518205033		-1.130716838
F		-1.821159006		-0.542231719		-1.863652111
F		2.764399572		-3.562160117		-0.512368292
F		-1.205744118		-3.612802625		-1.041707999
F		1.881622891		-1.417411267		1.19679708
F		0.833411734		-1.508472312		-1.48904034
F		0.080899916		-1.172721161		3.439187431
F		0.387617454		1.134916581		1.195871497
F		-0.979614554		-1.449681186		0.803616837
