12
-187.24475565
Al		0.337688272		-0.599468372		1.738674413
Al		2.356792071		-1.794090961		-0.529027405
Al		-0.889725142		-1.824929268		-0.981005794
F		3.49661911		-0.518719721		-1.1311389
F		-1.820841692		-0.541706915		-1.863115299
F		2.765048094		-3.562155845		-0.512850732
F		-1.205260272		-3.612792353		-1.041060595
F		1.881267665		-1.417468489		1.196467096
F		0.833449418		-1.508471828		-1.48903485
F		0.080240814		-1.172729625		3.439091411
F		0.387178204		1.134910939		1.195807507
F		-0.980050476		-1.449634124		0.803831567
