12
-187.24475565
Al		0.337551043		-0.599470134		1.738654421
Al		2.356864355		-1.794152422		-0.52913745
Al		-0.889688822		-1.824866412		-0.980879928
F		3.496854287		-0.518977065		-1.131349931
F		-1.820683035		-0.541444513		-1.862846893
F		2.765372355		-3.562153709		-0.513091952
F		-1.205018349		-3.612787217		-1.040736893
F		1.881090052		-1.4174971		1.196302104
F		0.83346826		-1.508471586		-1.489032105
F		0.079911263		-1.172733857		3.439043401
F		0.386958579		1.134908118		1.195775512
F		-0.980268437		-1.449610593		0.803938932
