12
-187.24475565
Al		0.337413814		-0.599471896		1.738634429
Al		2.356936639		-1.794213883		-0.529247495
Al		-0.889652502		-1.824803556		-0.980754062
F		3.497089464		-0.519234409		-1.131560962
F		-1.820524378		-0.541182111		-1.862578487
F		2.765696616		-3.562151573		-0.513333172
F		-1.204776426		-3.612782081		-1.040413191
F		1.880912439		-1.417525711		1.196137112
F		0.833487102		-1.508471344		-1.48902936
F		0.079581712		-1.172738089		3.438995391
F		0.386738954		1.134905297		1.195743517
F		-0.980486398		-1.449587062		0.804046297
