12
-187.24475565
Al		0.336315982		-0.599485992		1.738474493
Al		2.357514911		-1.794705571		-0.530127855
Al		-0.889361942		-1.824300708		-0.979747134
F		3.49897088		-0.521293161		-1.13324921
F		-1.819255122		-0.539082895		-1.860431239
F		2.768290704		-3.562134485		-0.515262932
F		-1.202841042		-3.612740993		-1.037823575
F		1.879491535		-1.417754599		1.194817176
F		0.833637838		-1.508469408		-1.4890074
F		0.076945304		-1.172771945		3.438611311
F		0.384981954		1.134882729		1.195487557
F		-0.982230086		-1.449398814		0.804905217
