12
-187.24475565
Al		0.336178753		-0.599487754		1.738454501
Al		2.357587195		-1.794767032		-0.5302379
Al		-0.889325622		-1.824237852		-0.979621268
F		3.499206057		-0.521550505		-1.133460241
F		-1.819096465		-0.538820493		-1.860162833
F		2.768614965		-3.562132349		-0.515504152
F		-1.202599119		-3.612735857		-1.037499873
F		1.879313922		-1.41778321		1.194652184
F		0.83365668		-1.508469166		-1.489004655
F		0.076615753		-1.172776177		3.438563301
F		0.384762329		1.134879908		1.195455562
F		-0.982448047		-1.449375283		0.805012582
