12
-187.24475565
Al		0.336041524		-0.599489516		1.738434509
Al		2.357659479		-1.794828493		-0.530347945
Al		-0.889289302		-1.824174996		-0.979495402
F		3.499441234		-0.521807849		-1.133671272
F		-1.818937808		-0.538558091		-1.859894427
F		2.768939226		-3.562130213		-0.515745372
F		-1.202357196		-3.612730721		-1.037176171
F		1.879136309		-1.417811821		1.194487192
F		0.833675522		-1.508468924		-1.48900191
F		0.076286202		-1.172780409		3.438515291
F		0.384542704		1.134877087		1.195423567
F		-0.982666008		-1.449351752		0.805119947
