12
Properties=species:S:1:pos:R:3:forces:R:3 energy=-186.29615087 pbc="F F F"
Al    0.035058243    1.523584396    2.225696221    0.27683    -0.302998    0.095461
Al    2.6201681960000003    2.343022125    1.5509752749999999    -0.277906    -0.385255    -0.699297
Al    1.086704758    2.945185381    -0.691830353    -0.147882    0.368129    -0.177122
F    1.135246452    3.0154865190000004    2.531038132    0.033502    0.04772    -0.012455
F    -1.210998147    2.935688543    2.386572095    -0.010309    0.228442    0.03731
F    -0.7060723600000001    -0.012614818    2.8782956599999996    -0.104514    0.034553    0.012521
F    1.947668269    0.609795985    2.022914134    0.041696    -0.025266    0.089255
F    2.753064542    1.946960172    -0.262130354    0.008672    0.024934    0.19266
F    1.294321214    2.994168152    -2.5385334040000003    0.066877    -0.045777    -0.032337
F    1.755393868    4.149008487000001    0.560515665    -0.001141    -0.008361    0.013666
F    3.618022066    3.383361711    2.974629568    0.127856    0.218726    0.40492
F    0.1303034    1.550888268    0.206978305    -0.013681    -0.154847    0.075418
