12
-186.39349496
Al		-0.077891616		1.64080022		2.155238801
Al		2.525387595		2.607195417		1.765756399
Al		1.358361915		2.6644292		-0.647000824
F		1.001185391		3.0931351		2.835404951
F		-1.578317823		2.684758028		2.176704405
F		-0.493194225		-0.026604559		2.752041392
F		1.809483579		0.868344124		1.934301483
F		2.964998427		1.856796462		-0.072680211
F		1.087534041		3.034615566		-2.395568188
F		1.747932551		4.015111357		0.632950149
F		4.110886284		3.12559274		2.459674783
F		-0.009736605		1.801077373		0.212050699
