12
-186.39349496
Al		-0.077904655		1.641172644		2.155254154
Al		2.525745082		2.607954513		1.766209111
Al		1.358468918		2.663969208		-0.646522034
F		1.00066556		3.095066432		2.833794095
F		-1.578317043		2.684998606		2.181946252
F		-0.494270027		-0.029338368		2.742878498
F		1.810474517		0.869001027		1.937801317
F		2.963972493		1.854828379		-0.071507546
F		1.086653057		3.032075795		-2.395469076
F		1.749982092		4.015693367		0.631609615
F		4.111241392		3.127219859		2.459201622
F		-0.010168387		1.802480892		0.213496377
