12
-186.39349496
Al		-0.077893622		1.640857516		2.155241163
Al		2.525442593		2.607312201		1.765826047
Al		1.358378377		2.664358432		-0.646927164
F		1.001105417		3.093432228		2.835157127
F		-1.578317703		2.68479504		2.177510843
F		-0.493359733		-0.027025145		2.750631716
F		1.809636031		0.868445186		1.934839919
F		2.964840591		1.85649368		-0.072499801
F		1.087398505		3.034224832		-2.39555294
F		1.748247865		4.015200897		0.632743913
F		4.110940916		3.125843066		2.459601989
F		-0.009803033		1.801293299		0.212273111
