12
-186.39349496
Al		-0.077921706		1.64165966		2.155274231
Al		2.526212565		2.608947177		1.766801119
Al		1.358608845		2.66336768		-0.645895924
F		0.999985781		3.09759202		2.831687591
F		-1.578316023		2.685313208		2.188800975
F		-0.495676845		-0.032913349		2.730896252
F		1.811770359		0.869860054		1.942378023
F		2.962630887		1.852254732		-0.069974061
F		1.085501001		3.028754556		-2.395339468
F		1.752662261		4.016454457		0.629856609
F		4.111705764		3.12934763		2.458582873
F		-0.010733025		1.804316263		0.215386879
