12
-186.39349496
Al		-0.077924715		1.641745604		2.155277774
Al		2.526295062		2.609122353		1.766905591
Al		1.358633538		2.663261528		-0.645785434
F		0.99986582		3.098037712		2.831315855
F		-1.578315843		2.685368726		2.190010632
F		-0.495925107		-0.033544228		2.728781738
F		1.811999037		0.870011647		1.943185677
F		2.962394133		1.851800559		-0.069703446
F		1.085297697		3.028168455		-2.395316596
F		1.753135232		4.016588767		0.629547255
F		4.111787712		3.129723119		2.458473682
F		-0.010832667		1.804640152		0.215720497
