12
-186.39349496
Al		-0.077925718		1.641774252		2.155278955
Al		2.526322561		2.609180745		1.766940415
Al		1.358641769		2.663226144		-0.645748604
F		0.999825833		3.098186276		2.831191943
F		-1.578315783		2.685387232		2.190413851
F		-0.496007861		-0.033754521		2.7280769
F		1.812075263		0.870062178		1.943454895
F		2.962315215		1.851649168		-0.069613241
F		1.085229929		3.027973088		-2.395308972
F		1.753292889		4.016633537		0.629444137
F		4.111815028		3.129848282		2.458437285
F		-0.010865881		1.804748115		0.215831703
