12
-186.39349496
Al		-0.077927724		1.641831548		2.155281317
Al		2.526377559		2.609297529		1.767010063
Al		1.358658231		2.663155376		-0.645674944
F		0.999745859		3.098483404		2.830944119
F		-1.578315663		2.685424244		2.191220289
F		-0.496173369		-0.034175107		2.726667224
F		1.812227715		0.87016324		1.943993331
F		2.962157379		1.851346386		-0.069432831
F		1.085094393		3.027582354		-2.395293724
F		1.753608203		4.016723077		0.629237901
F		4.11186966		3.130098608		2.458364491
F		-0.010932309		1.804964041		0.216054115
