12
-186.39349496
Al		-0.077928727		1.641860196		2.155282498
Al		2.526405058		2.609355921		1.767044887
Al		1.358666462		2.663119992		-0.645638114
F		0.999705872		3.098631968		2.830820207
F		-1.578315603		2.68544275		2.191623508
F		-0.496256123		-0.0343854		2.725962386
F		1.812303941		0.870213771		1.944262549
F		2.962078461		1.851194995		-0.069342626
F		1.085026625		3.027386987		-2.3952861
F		1.75376586		4.016767847		0.629134783
F		4.111896976		3.130223771		2.458328094
F		-0.010965523		1.805072004		0.216165321
