12
-186.39349496
Al		-0.07792973		1.641888844		2.155283679
Al		2.526432557		2.609414313		1.767079711
Al		1.358674693		2.663084608		-0.645601284
F		0.999665885		3.098780532		2.830696295
F		-1.578315543		2.685461256		2.192026727
F		-0.496338877		-0.034595693		2.725257548
F		1.812380167		0.870264302		1.944531767
F		2.961999543		1.851043604		-0.069252421
F		1.084958857		3.02719162		-2.395278476
F		1.753923517		4.016812617		0.629031665
F		4.111924292		3.130348934		2.458291697
F		-0.010998737		1.805179967		0.216276527
