12
-186.39349496
Al		-0.077931736		1.64194614		2.155286041
Al		2.526487555		2.609531097		1.767149359
Al		1.358691155		2.66301384		-0.645527624
F		0.999585911		3.09907766		2.830448471
F		-1.578315423		2.685498268		2.192833165
F		-0.496504385		-0.035016279		2.723847872
F		1.812532619		0.870365364		1.945070203
F		2.961841707		1.850740822		-0.069072011
F		1.084823321		3.026800886		-2.395263228
F		1.754238831		4.016902157		0.628825429
F		4.111978924		3.13059926		2.458218903
F		-0.011065165		1.805395893		0.216498939
