12
-186.39349496
Al		-0.077933742		1.642003436		2.155288403
Al		2.526542553		2.609647881		1.767219007
Al		1.358707617		2.662943072		-0.645453964
F		0.999505937		3.099374788		2.830200647
F		-1.578315303		2.68553528		2.193639603
F		-0.496669893		-0.035436865		2.722438196
F		1.812685071		0.870466426		1.945608639
F		2.961683871		1.85043804		-0.068891601
F		1.084687785		3.026410152		-2.39524798
F		1.754554145		4.016991697		0.628619193
F		4.112033556		3.130849586		2.458146109
F		-0.011131593		1.805611819		0.216721351
