12
-186.39349496
Al		-0.077937754		1.642118028		2.155293127
Al		2.526652549		2.609881449		1.767358303
Al		1.358740541		2.662801536		-0.645306644
F		0.999345989		3.099969044		2.829704999
F		-1.578315063		2.685609304		2.195252479
F		-0.497000909		-0.036278037		2.719618844
F		1.812989975		0.87066855		1.946685511
F		2.961368199		1.849832476		-0.068530781
F		1.084416713		3.025628684		-2.395217484
F		1.755184773		4.017170777		0.628206721
F		4.11214282		3.131350238		2.458000521
F		-0.011264449		1.806043671		0.217166175
