12
-186.39349496
Al		-0.077941766		1.64223262		2.155297851
Al		2.526762545		2.610115017		1.767497599
Al		1.358773465		2.66266		-0.645159324
F		0.999186041		3.1005633		2.829209351
F		-1.578314823		2.685683328		2.196865355
F		-0.497331925		-0.037119209		2.716799492
F		1.813294879		0.870870674		1.947762383
F		2.961052527		1.849226912		-0.068169961
F		1.084145641		3.024847216		-2.395186988
F		1.755815401		4.017349857		0.627794249
F		4.112252084		3.13185089		2.457854933
F		-0.011397305		1.806475523		0.217610999
