12
-186.39349496
Al		-0.077944775		1.642318564		2.155301394
Al		2.526845042		2.610290193		1.767602071
Al		1.358798158		2.662553848		-0.645048834
F		0.99906608		3.101008992		2.828837615
F		-1.578314643		2.685738846		2.198075012
F		-0.497580187		-0.037750088		2.714684978
F		1.813523557		0.871022267		1.948570037
F		2.960815773		1.848772739		-0.067899346
F		1.083942337		3.024261115		-2.395164116
F		1.756288372		4.017484167		0.627484895
F		4.112334032		3.132226379		2.457745742
F		-0.011496947		1.806799412		0.217944617
