12
-186.39349496
Al		-0.077948787		1.642433156		2.155306118
Al		2.526955038		2.610523761		1.767741367
Al		1.358831082		2.662412312		-0.644901514
F		0.998906132		3.101603248		2.828341967
F		-1.578314403		2.68581287		2.199687888
F		-0.497911203		-0.03859126		2.711865626
F		1.813828461		0.871224391		1.949646909
F		2.960500101		1.848167175		-0.067538526
F		1.083671265		3.023479647		-2.39513362
F		1.756919		4.017663247		0.627072423
F		4.112443296		3.132727031		2.457600154
F		-0.011629803		1.807231264		0.218389441
