12
-186.39349496
Al		-0.077896631		1.64094346		2.155244706
Al		2.52552509		2.607487377		1.765930519
Al		1.35840307		2.66425228		-0.646816674
F		1.000985456		3.09387792		2.834785391
F		-1.578317523		2.684850558		2.1787205
F		-0.493607995		-0.027656024		2.748517202
F		1.809864709		0.868596779		1.935647573
F		2.964603837		1.856039507		-0.072229186
F		1.087195201		3.033638731		-2.395530068
F		1.748720836		4.015335207		0.632434559
F		4.111022864		3.126218555		2.459492798
F		-0.009902675		1.801617188		0.212606729
