12
-186.39349496
Al		-0.077950793		1.642490452		2.15530848
Al		2.527010036		2.610640545		1.767811015
Al		1.358847544		2.662341544		-0.644827854
F		0.998826158		3.101900376		2.828094143
F		-1.578314283		2.685849882		2.200494326
F		-0.498076711		-0.039011846		2.71045595
F		1.813980913		0.871325453		1.950185345
F		2.960342265		1.847864393		-0.067358116
F		1.083535729		3.023088913		-2.395118372
F		1.757234314		4.017752787		0.626866187
F		4.112497928		3.132977357		2.45752736
F		-0.011696231		1.80744719		0.218611853
