12
-186.39349496
Al		-0.077951796		1.6425191		2.155309661
Al		2.527037535		2.610698937		1.767845839
Al		1.358855775		2.66230616		-0.644791024
F		0.998786171		3.10204894		2.827970231
F		-1.578314223		2.685868388		2.200897545
F		-0.498159465		-0.039222139		2.709751112
F		1.814057139		0.871375984		1.950454563
F		2.960263347		1.847713002		-0.067267911
F		1.083467961		3.022893546		-2.395110748
F		1.757391971		4.017797557		0.626763069
F		4.112525244		3.13310252		2.457490963
F		-0.011729445		1.807555153		0.218723059
