12
-186.39349496
Al		-0.077954805		1.642605044		2.155313204
Al		2.527120032		2.610874113		1.767950311
Al		1.358880468		2.662200008		-0.644680534
F		0.99866621		3.102494632		2.827598495
F		-1.578314043		2.685923906		2.202107202
F		-0.498407727		-0.039853018		2.707636598
F		1.814285817		0.871527577		1.951262217
F		2.960026593		1.847258829		-0.066997296
F		1.083264657		3.022307445		-2.395087876
F		1.757864942		4.017931867		0.626453715
F		4.112607192		3.133478009		2.457381772
F		-0.011829087		1.807879042		0.219056677
