12
-186.39349496
Al		-0.077958817		1.642719636		2.155317928
Al		2.527230028		2.611107681		1.768089607
Al		1.358913392		2.662058472		-0.644533214
F		0.998506262		3.103088888		2.827102847
F		-1.578313803		2.68599793		2.203720078
F		-0.498738743		-0.04069419		2.704817246
F		1.814590721		0.871729701		1.952339089
F		2.959710921		1.846653265		-0.066636476
F		1.082993585		3.021525977		-2.39505738
F		1.75849557		4.018110947		0.626041243
F		4.112716456		3.133978661		2.457236184
F		-0.011961943		1.808310894		0.219501501
