12
-186.39349496
Al		-0.077897634		1.640972108		2.155245887
Al		2.525552589		2.607545769		1.765965343
Al		1.358411301		2.664216896		-0.646779844
F		1.000945469		3.094026484		2.834661479
F		-1.578317463		2.684869064		2.179123719
F		-0.493690749		-0.027866317		2.747812364
F		1.809940935		0.86864731		1.935916791
F		2.964524919		1.855888116		-0.072138981
F		1.087127433		3.033443364		-2.395522444
F		1.748878493		4.015379977		0.632331441
F		4.11105018		3.126343718		2.459456401
F		-0.009935889		1.801725151		0.212717935
