12
-186.39349496
Al		-0.077960823		1.642776932		2.15532029
Al		2.527285026		2.611224465		1.768159255
Al		1.358929854		2.661987704		-0.644459554
F		0.998426288		3.103386016		2.826855023
F		-1.578313683		2.686034942		2.204526516
F		-0.498904251		-0.041114776		2.70340757
F		1.814743173		0.871830763		1.952877525
F		2.959553085		1.846350483		-0.066456066
F		1.082858049		3.021135243		-2.395042132
F		1.758810884		4.018200487		0.625835007
F		4.112771088		3.134228987		2.45716339
F		-0.012028371		1.80852682		0.219723913
