12
-186.39349496
Al		-0.077963832		1.642862876		2.155323833
Al		2.527367523		2.611399641		1.768263727
Al		1.358954547		2.661881552		-0.644349064
F		0.998306327		3.103831708		2.826483287
F		-1.578313503		2.68609046		2.205736173
F		-0.499152513		-0.041745655		2.701293056
F		1.814971851		0.871982356		1.953685179
F		2.959316331		1.84589631		-0.066185451
F		1.082654745		3.020549142		-2.39501926
F		1.759283855		4.018334797		0.625525653
F		4.112853036		3.134604476		2.457054199
F		-0.012128013		1.808850709		0.220057531
