12
-186.39349496
Al		-0.077964835		1.642891524		2.155325014
Al		2.527395022		2.611458033		1.768298551
Al		1.358962778		2.661846168		-0.644312234
F		0.99826634		3.103980272		2.826359375
F		-1.578313443		2.686108966		2.206139392
F		-0.499235267		-0.041955948		2.700588218
F		1.815048077		0.872032887		1.953954397
F		2.959237413		1.845744919		-0.066095246
F		1.082586977		3.020353775		-2.395011636
F		1.759441512		4.018379567		0.625422535
F		4.112880352		3.134729639		2.457017802
F		-0.012161227		1.808958672		0.220168737
