12
-186.39349496
Al		-0.077968847		1.643006116		2.155329738
Al		2.527505018		2.611691601		1.768437847
Al		1.358995702		2.661704632		-0.644164914
F		0.998106392		3.104574528		2.825863727
F		-1.578313203		2.68618299		2.207752268
F		-0.499566283		-0.04279712		2.697768866
F		1.815352981		0.872235011		1.955031269
F		2.958921741		1.845139355		-0.065734426
F		1.082315905		3.019572307		-2.39498114
F		1.76007214		4.018558647		0.625010063
F		4.112989616		3.135230291		2.456872214
F		-0.012294083		1.809390524		0.220613561
