12
-186.39349496
Al		-0.077970853		1.643063412		2.1553321
Al		2.527560016		2.611808385		1.768507495
Al		1.359012164		2.661633864		-0.644091254
F		0.998026418		3.104871656		2.825615903
F		-1.578313083		2.686220002		2.208558706
F		-0.499731791		-0.043217706		2.69635919
F		1.815505433		0.872336073		1.955569705
F		2.958763905		1.844836573		-0.065554016
F		1.082180369		3.019181573		-2.394965892
F		1.760387454		4.018648187		0.624803827
F		4.113044248		3.135480617		2.45679942
F		-0.012360511		1.80960645		0.220835973
