12
-186.39349496
Al		-0.077972859		1.643120708		2.155334462
Al		2.527615014		2.611925169		1.768577143
Al		1.359028626		2.661563096		-0.644017594
F		0.997946444		3.105168784		2.825368079
F		-1.578312963		2.686257014		2.209365144
F		-0.499897299		-0.043638292		2.694949514
F		1.815657885		0.872437135		1.956108141
F		2.958606069		1.844533791		-0.065373606
F		1.082044833		3.018790839		-2.394950644
F		1.760702768		4.018737727		0.624597591
F		4.11309888		3.135730943		2.456726626
F		-0.012426939		1.809822376		0.221058385
