12
-186.39349496
Al		-0.07797988		1.643321244		2.155342729
Al		2.527807507		2.612333913		1.768820911
Al		1.359086243		2.661315408		-0.643759784
F		0.997666535		3.106208732		2.824500695
F		-1.578312543		2.686386556		2.212187677
F		-0.500476577		-0.045110343		2.690015648
F		1.816191467		0.872790852		1.957992667
F		2.958053643		1.843474054		-0.064742171
F		1.081570457		3.01742327		-2.394897276
F		1.761806367		4.019051117		0.623875765
F		4.113290092		3.136607084		2.456471847
F		-0.012659437		1.810578117		0.221836827
