12
-186.39349496
Al		-0.07789964		1.641029404		2.155248249
Al		2.525607587		2.607662553		1.766034991
Al		1.358427763		2.664146128		-0.646706184
F		1.000865495		3.094323612		2.834413655
F		-1.578317343		2.684906076		2.179930157
F		-0.493856257		-0.028286903		2.746402688
F		1.810093387		0.868748372		1.936455227
F		2.964367083		1.855585334		-0.071958571
F		1.086991897		3.03305263		-2.395507196
F		1.749193807		4.015469517		0.632125205
F		4.111104812		3.126594044		2.459383607
F		-0.010002317		1.801941077		0.212940347
