12
-186.39349496
Al		-0.077980883		1.643349892		2.15534391
Al		2.527835006		2.612392305		1.768855735
Al		1.359094474		2.661280024		-0.643722954
F		0.997626548		3.106357296		2.824376783
F		-1.578312483		2.686405062		2.212590896
F		-0.500559331		-0.045320636		2.68931081
F		1.816267693		0.872841383		1.958261885
F		2.957974725		1.843322663		-0.064651966
F		1.081502689		3.017227903		-2.394889652
F		1.761964024		4.019095887		0.623772647
F		4.113317408		3.136732247		2.45643545
F		-0.012692651		1.81068608		0.221948033
