12
-186.39349496
Al		-0.077984895		1.643464484		2.155348634
Al		2.527945002		2.612625873		1.768995031
Al		1.359127398		2.661138488		-0.643575634
F		0.9974666		3.106951552		2.823881135
F		-1.578312243		2.686479086		2.214203772
F		-0.500890347		-0.046161808		2.686491458
F		1.816572597		0.873043507		1.959338757
F		2.957659053		1.842717099		-0.064291146
F		1.081231617		3.016446435		-2.394859156
F		1.762594652		4.019274967		0.623360175
F		4.113426672		3.137232899		2.456289862
F		-0.012825507		1.811117932		0.222392857
