12
-186.39349496
Al		-0.077880583		1.640485092		2.15522581
Al		2.525085106		2.606553105		1.765373335
Al		1.358271374		2.664818424		-0.647405954
F		1.001625248		3.091500896		2.836767983
F		-1.578318483		2.684554462		2.172268996
F		-0.492283931		-0.024291336		2.75979461
F		1.808645093		0.867788283		1.931340085
F		2.965866525		1.858461763		-0.073672466
F		1.088279489		3.036764603		-2.395652052
F		1.746198324		4.014618887		0.634084447
F		4.110585808		3.124215947		2.46007515
F		-0.009371251		1.79988978		0.210827433
