12
-186.39349496
Al		-0.077875568		1.640341852		2.155219905
Al		2.524947611		2.606261145		1.765199215
Al		1.358230219		2.664995344		-0.647590104
F		1.001825183		3.090758076		2.837387543
F		-1.578318783		2.684461932		2.170252901
F		-0.491870161		-0.023239871		2.7633188
F		1.808263963		0.867535628		1.929993995
F		2.966261115		1.859218718		-0.074123491
F		1.088618329		3.037741438		-2.395690172
F		1.745410039		4.014395037		0.634600037
F		4.110449228		3.123590132		2.460257135
F		-0.009205181		1.799349965		0.210271403
