12
-186.39349496
Al		-0.077888607		1.640714276		2.155235258
Al		2.525305098		2.607020241		1.765651927
Al		1.358337222		2.664535352		-0.647111314
F		1.001305352		3.092689408		2.835776687
F		-1.578318003		2.68470251		2.175494748
F		-0.492945963		-0.02597368		2.754155906
F		1.809254901		0.868192531		1.933493829
F		2.965235181		1.857250635		-0.072950826
F		1.087737345		3.035201667		-2.39559106
F		1.74745958		4.014977047		0.633259503
F		4.110804336		3.125217251		2.459783974
F		-0.009636963		1.800753484		0.211717081
