12
-186.39349496
Al		-0.077858517		1.639854836		2.155199828
Al		2.524480128		2.605268481		1.764607207
Al		1.358090292		2.665596872		-0.648216214
F		1.002504962		3.088232488		2.839494047
F		-1.578319803		2.68414733		2.163398178
F		-0.490463343		-0.01966489		2.775301046
F		1.806968121		0.866676601		1.925417289
F		2.967602721		1.861792365		-0.075656976
F		1.089770385		3.041062677		-2.39581978
F		1.74272987		4.013633947		0.636353043
F		4.109984856		3.121462361		2.460875884
F		-0.008640543		1.797514594		0.208380901
