12
-186.39349496
Al		-0.077857514		1.639826188		2.155198647
Al		2.524452629		2.605210089		1.764572383
Al		1.358082061		2.665632256		-0.648253044
F		1.002544949		3.088083924		2.839617959
F		-1.578319863		2.684128824		2.162994959
F		-0.490380589		-0.019454597		2.776005884
F		1.806891895		0.86662607		1.925148071
F		2.967681639		1.861943756		-0.075747181
F		1.089838153		3.041258044		-2.395827404
F		1.742572213		4.013589177		0.636456161
F		4.10995754		3.121337198		2.460912281
F		-0.008607329		1.797406631		0.208269695
