12
-186.39349496
Al		-0.077856511		1.63979754		2.155197466
Al		2.52442513		2.605151697		1.764537559
Al		1.35807383		2.66566764		-0.648289874
F		1.002584936		3.08793536		2.839741871
F		-1.578319923		2.684110318		2.16259174
F		-0.490297835		-0.019244304		2.776710722
F		1.806815669		0.866575539		1.924878853
F		2.967760557		1.862095147		-0.075837386
F		1.089905921		3.041453411		-2.395835028
F		1.742414556		4.013544407		0.636559279
F		4.109930224		3.121212035		2.460948678
F		-0.008574115		1.797298668		0.208158489
