12
-186.39349496
Al		-0.077855508		1.639768892		2.155196285
Al		2.524397631		2.605093305		1.764502735
Al		1.358065599		2.665703024		-0.648326704
F		1.002624923		3.087786796		2.839865783
F		-1.578319983		2.684091812		2.162188521
F		-0.490215081		-0.019034011		2.77741556
F		1.806739443		0.866525008		1.924609635
F		2.967839475		1.862246538		-0.075927591
F		1.089973689		3.041648778		-2.395842652
F		1.742256899		4.013499637		0.636662397
F		4.109902908		3.121086872		2.460985075
F		-0.008540901		1.797190705		0.208047283
