12
-186.39349496
Al		-0.077850493		1.639625652		2.15519038
Al		2.524260136		2.604801345		1.764328615
Al		1.358024444		2.665879944		-0.648510854
F		1.002824858		3.087043976		2.840485343
F		-1.578320283		2.683999282		2.160172426
F		-0.489801311		-0.017982546		2.78093975
F		1.806358313		0.866272353		1.923263545
F		2.968234065		1.863003493		-0.076378616
F		1.090312529		3.042625613		-2.395880772
F		1.741468614		4.013275787		0.637177987
F		4.109766328		3.120461057		2.46116706
F		-0.008374831		1.79665089		0.207491253
