12
-186.39349496
Al		-0.07784949		1.639597004		2.155189199
Al		2.524232637		2.604742953		1.764293791
Al		1.358016213		2.665915328		-0.648547684
F		1.002864845		3.086895412		2.840609255
F		-1.578320343		2.683980776		2.159769207
F		-0.489718557		-0.017772253		2.781644588
F		1.806282087		0.866221822		1.922994327
F		2.968312983		1.863154884		-0.076468821
F		1.090380297		3.04282098		-2.395888396
F		1.741310957		4.013231017		0.637281105
F		4.109739012		3.120335894		2.461203457
F		-0.008341617		1.796542927		0.207380047
