12
-186.39349496
Al		-0.077846481		1.63951106		2.155185656
Al		2.52415014		2.604567777		1.764189319
Al		1.35799152		2.66602148		-0.648658174
F		1.002984806		3.08644972		2.840980991
F		-1.578320523		2.683925258		2.15855955
F		-0.489470295		-0.017141374		2.783759102
F		1.806053409		0.866070229		1.922186673
F		2.968549737		1.863609057		-0.076739436
F		1.090583601		3.043407081		-2.395911268
F		1.740837986		4.013096707		0.637590459
F		4.109657064		3.119960405		2.461312648
F		-0.008241975		1.796219038		0.207046429
