12
-186.39349496
Al		-0.077844475		1.639453764		2.155183294
Al		2.524095142		2.604450993		1.764119671
Al		1.357975058		2.666092248		-0.648731834
F		1.00306478		3.086152592		2.841228815
F		-1.578320643		2.683888246		2.157753112
F		-0.489304787		-0.016720788		2.785168778
F		1.805900957		0.865969167		1.921648237
F		2.968707573		1.863911839		-0.076919846
F		1.090719137		3.043797815		-2.395926516
F		1.740522672		4.013007167		0.637796695
F		4.109602432		3.119710079		2.461385442
F		-0.008175547		1.796003112		0.206824017
