12
-186.39349496
Al		-0.077843472		1.639425116		2.155182113
Al		2.524067643		2.604392601		1.764084847
Al		1.357966827		2.666127632		-0.648768664
F		1.003104767		3.086004028		2.841352727
F		-1.578320703		2.68386974		2.157349893
F		-0.489222033		-0.016510495		2.785873616
F		1.805824731		0.865918636		1.921379019
F		2.968786491		1.86406323		-0.077010051
F		1.090786905		3.043993182		-2.39593414
F		1.740365015		4.012962397		0.637899813
F		4.109575116		3.119584916		2.461421839
F		-0.008142333		1.795895149		0.206712811
