12
-186.39349496
Al		-0.077838457		1.639281876		2.155176208
Al		2.523930148		2.604100641		1.763910727
Al		1.357925672		2.666304552		-0.648952814
F		1.003304702		3.085261208		2.841972287
F		-1.578321003		2.68377721		2.155333798
F		-0.488808263		-0.01545903		2.789397806
F		1.805443601		0.865665981		1.920032929
F		2.969181081		1.864820185		-0.077461076
F		1.091125745		3.044970017		-2.39597226
F		1.73957673		4.012738547		0.638415403
F		4.109438536		3.118959101		2.461603824
F		-0.007976263		1.795355334		0.206156781
