12
-186.39349496
Al		-0.077836451		1.63922458		2.155173846
Al		2.52387515		2.603983857		1.763841079
Al		1.35790921		2.66637532		-0.649026474
F		1.003384676		3.08496408		2.842220111
F		-1.578321123		2.683740198		2.15452736
F		-0.488642755		-0.015038444		2.790807482
F		1.805291149		0.865564919		1.919494493
F		2.969338917		1.865122967		-0.077641486
F		1.091261281		3.045360751		-2.395987508
F		1.739261416		4.012649007		0.638621639
F		4.109383904		3.118708775		2.461676618
F		-0.007909835		1.795139408		0.205934369
