12
-186.39349496
Al		-0.077835448		1.639195932		2.155172665
Al		2.523847651		2.603925465		1.763806255
Al		1.357900979		2.666410704		-0.649063304
F		1.003424663		3.084815516		2.842344023
F		-1.578321183		2.683721692		2.154124141
F		-0.488560001		-0.014828151		2.79151232
F		1.805214923		0.865514388		1.919225275
F		2.969417835		1.865274358		-0.077731691
F		1.091329049		3.045556118		-2.395995132
F		1.739103759		4.012604237		0.638724757
F		4.109356588		3.118583612		2.461713015
F		-0.007876621		1.795031445		0.205823163
