12
-186.39349496
Al		-0.077834445		1.639167284		2.155171484
Al		2.523820152		2.603867073		1.763771431
Al		1.357892748		2.666446088		-0.649100134
F		1.00346465		3.084666952		2.842467935
F		-1.578321243		2.683703186		2.153720922
F		-0.488477247		-0.014617858		2.792217158
F		1.805138697		0.865463857		1.918956057
F		2.969496753		1.865425749		-0.077821896
F		1.091396817		3.045751485		-2.396002756
F		1.738946102		4.012559467		0.638827875
F		4.109329272		3.118458449		2.461749412
F		-0.007843407		1.794923482		0.205711957
