12
-186.39349496
Al		-0.077827424		1.638966748		2.155163217
Al		2.523627659		2.603458329		1.763527663
Al		1.357835131		2.666693776		-0.649357944
F		1.003744559		3.083627004		2.843335319
F		-1.578321663		2.683573644		2.150898389
F		-0.487897969		-0.013145807		2.797151024
F		1.804605115		0.86511014		1.917071531
F		2.970049179		1.866485486		-0.078453331
F		1.091871193		3.047119054		-2.396056124
F		1.737842503		4.012246077		0.639549701
F		4.10913806		3.117582308		2.462004191
F		-0.007610909		1.794167741		0.204933515
