12
-186.39349496
Al		-0.077823412		1.638852156		2.155158493
Al		2.523517663		2.603224761		1.763388367
Al		1.357802207		2.666835312		-0.649505264
F		1.003904507		3.083032748		2.843830967
F		-1.578321903		2.68349962		2.149285513
F		-0.487566953		-0.012304635		2.799970376
F		1.804300211		0.864908016		1.915994659
F		2.970364851		1.86709105		-0.078814151
F		1.092142265		3.047900522		-2.39608662
F		1.737211875		4.012066997		0.639962173
F		4.109028796		3.117081656		2.462149779
F		-0.007478053		1.793735889		0.204488691
