12
-186.39349496
Al		-0.077822409		1.638823508		2.155157312
Al		2.523490164		2.603166369		1.763353543
Al		1.357793976		2.666870696		-0.649542094
F		1.003944494		3.082884184		2.843954879
F		-1.578321963		2.683481114		2.148882294
F		-0.487484199		-0.012094342		2.800675214
F		1.804223985		0.864857485		1.915725441
F		2.970443769		1.867242441		-0.078904356
F		1.092210033		3.048095889		-2.396094244
F		1.737054218		4.012022227		0.640065291
F		4.10900148		3.116956493		2.462186176
F		-0.007444839		1.793627926		0.204377485
