12
-186.39349496
Al		-0.0778194		1.638737564		2.155153769
Al		2.523407667		2.602991193		1.763249071
Al		1.357769283		2.666976848		-0.649652584
F		1.004064455		3.082438492		2.844326615
F		-1.578322143		2.683425596		2.147672637
F		-0.487235937		-0.011463463		2.802789728
F		1.803995307		0.864705892		1.914917787
F		2.970680523		1.867696614		-0.079174971
F		1.092413337		3.04868199		-2.396117116
F		1.736581247		4.011887917		0.640374645
F		4.108919532		3.116581004		2.462295367
F		-0.007345197		1.793304037		0.204043867
