12
-186.39349496
Al		-0.077818397		1.638708916		2.155152588
Al		2.523380168		2.602932801		1.763214247
Al		1.357761052		2.667012232		-0.649689414
F		1.004104442		3.082289928		2.844450527
F		-1.578322203		2.68340709		2.147269418
F		-0.487153183		-0.01125317		2.803494566
F		1.803919081		0.864655361		1.914648569
F		2.970759441		1.867848005		-0.079265176
F		1.092481105		3.048877357		-2.39612474
F		1.73642359		4.011843147		0.640477763
F		4.108892216		3.116455841		2.462331764
F		-0.007311983		1.793196074		0.203932661
