12
-186.39349496
Al		-0.077816391		1.63865162		2.155150226
Al		2.52332517		2.602816017		1.763144599
Al		1.35774459		2.667083		-0.649763074
F		1.004184416		3.0819928		2.844698351
F		-1.578322323		2.683370078		2.14646298
F		-0.486987675		-0.010832584		2.804904242
F		1.803766629		0.864554299		1.914110133
F		2.970917277		1.868150787		-0.079445586
F		1.092616641		3.049268091		-2.396139988
F		1.736108276		4.011753607		0.640683999
F		4.108837584		3.116205515		2.462404558
F		-0.007245555		1.792980148		0.203710249
