12
-186.39349496
Al		-0.077814385		1.638594324		2.155147864
Al		2.523270172		2.602699233		1.763074951
Al		1.357728128		2.667153768		-0.649836734
F		1.00426439		3.081695672		2.844946175
F		-1.578322443		2.683333066		2.145656542
F		-0.486822167		-0.010411998		2.806313918
F		1.803614177		0.864453237		1.913571697
F		2.971075113		1.868453569		-0.079625996
F		1.092752177		3.049658825		-2.396155236
F		1.735792962		4.011664067		0.640890235
F		4.108782952		3.115955189		2.462477352
F		-0.007179127		1.792764222		0.203487837
