12
-186.39349496
Al		-0.07780937		1.638451084		2.155141959
Al		2.523132677		2.602407273		1.762900831
Al		1.357686973		2.667330688		-0.650020884
F		1.004464325		3.080952852		2.845565735
F		-1.578322743		2.683240536		2.143640447
F		-0.486408397		-0.009360533		2.809838108
F		1.803233047		0.864200582		1.912225607
F		2.971469703		1.869210524		-0.080077021
F		1.093091017		3.05063566		-2.396193356
F		1.735004677		4.011440217		0.641405825
F		4.108646372		3.115329374		2.462659337
F		-0.007013057		1.792224407		0.202931807
