12
-186.39349496
Al		-0.077808367		1.638422436		2.155140778
Al		2.523105178		2.602348881		1.762866007
Al		1.357678742		2.667366072		-0.650057714
F		1.004504312		3.080804288		2.845689647
F		-1.578322803		2.68322203		2.143237228
F		-0.486325643		-0.00915024		2.810542946
F		1.803156821		0.864150051		1.911956389
F		2.971548621		1.869361915		-0.080167226
F		1.093158785		3.050831027		-2.39620098
F		1.73484702		4.011395447		0.641508943
F		4.108619056		3.115204211		2.462695734
F		-0.006979843		1.792116444		0.202820601
