12
-186.39349496
Al		-0.077802349		1.638250548		2.155133692
Al		2.522940184		2.601998529		1.762657063
Al		1.357629356		2.667578376		-0.650278694
F		1.004744234		3.079912904		2.846433119
F		-1.578323163		2.683110994		2.140817914
F		-0.485829119		-0.007888482		2.814771974
F		1.802699465		0.863846865		1.910341081
F		2.972022129		1.870270261		-0.080708456
F		1.093565393		3.052003229		-2.396246724
F		1.733901078		4.011126827		0.642127651
F		4.10845516		3.114453233		2.462914116
F		-0.006780559		1.791468666		0.202153365
