12
-186.39349496
Al		-0.077800343		1.638193252		2.15513133
Al		2.522885186		2.601881745		1.762587415
Al		1.357612894		2.667649144		-0.650352354
F		1.004824208		3.079615776		2.846680943
F		-1.578323283		2.683073982		2.140011476
F		-0.485663611		-0.007467896		2.81618165
F		1.802547013		0.863745803		1.909802645
F		2.972179965		1.870573043		-0.080888866
F		1.093700929		3.052393963		-2.396261972
F		1.733585764		4.011037287		0.642333887
F		4.108400528		3.114202907		2.46298691
F		-0.006714131		1.79125274		0.201930953
