12
-186.39349496
Al		-0.07779934		1.638164604		2.155130149
Al		2.522857687		2.601823353		1.762552591
Al		1.357604663		2.667684528		-0.650389184
F		1.004864195		3.079467212		2.846804855
F		-1.578323343		2.683055476		2.139608257
F		-0.485580857		-0.007257603		2.816886488
F		1.802470787		0.863695272		1.909533427
F		2.972258883		1.870724434		-0.080979071
F		1.093768697		3.05258933		-2.396269596
F		1.733428107		4.010992517		0.642437005
F		4.108373212		3.114077744		2.463023307
F		-0.006680917		1.791144777		0.201819747
