12
-186.39349496
Al		-0.077797334		1.638107308		2.155127787
Al		2.522802689		2.601706569		1.762482943
Al		1.357588201		2.667755296		-0.650462844
F		1.004944169		3.079170084		2.847052679
F		-1.578323463		2.683018464		2.138801819
F		-0.485415349		-0.006837017		2.818296164
F		1.802318335		0.86359421		1.908994991
F		2.972416719		1.871027216		-0.081159481
F		1.093904233		3.052980064		-2.396284844
F		1.733112793		4.010902977		0.642643241
F		4.10831858		3.113827418		2.463096101
F		-0.006614489		1.790928851		0.201597335
