12
-186.39349496
Al		-0.077796331		1.63807866		2.155126606
Al		2.52277519		2.601648177		1.762448119
Al		1.35757997		2.66779068		-0.650499674
F		1.004984156		3.07902152		2.847176591
F		-1.578323523		2.682999958		2.1383986
F		-0.485332595		-0.006626724		2.819001002
F		1.802242109		0.863543679		1.908725773
F		2.972495637		1.871178607		-0.081249686
F		1.093972001		3.053175431		-2.396292468
F		1.732955136		4.010858207		0.642746359
F		4.108291264		3.113702255		2.463132498
F		-0.006581275		1.790820888		0.201486129
