12
-186.39349496
Al		-0.077792319		1.637964068		2.155121882
Al		2.522665194		2.601414609		1.762308823
Al		1.357547046		2.667932216		-0.650646994
F		1.005144104		3.078427264		2.847672239
F		-1.578323763		2.682925934		2.136785724
F		-0.485001579		-0.005785552		2.821820354
F		1.801937205		0.863341555		1.907648901
F		2.972811309		1.871784171		-0.081610506
F		1.094243073		3.053956899		-2.396322964
F		1.732324508		4.010679127		0.643158831
F		4.108182		3.113201603		2.463278086
F		-0.006448419		1.790389036		0.201041305
