12
-186.39349496
Al		-0.077791316		1.63793542		2.155120701
Al		2.522637695		2.601356217		1.762273999
Al		1.357538815		2.6679676		-0.650683824
F		1.005184091		3.0782787		2.847796151
F		-1.578323823		2.682907428		2.136382505
F		-0.484918825		-0.005575259		2.822525192
F		1.801860979		0.863291024		1.907379683
F		2.972890227		1.871935562		-0.081700711
F		1.094310841		3.054152266		-2.396330588
F		1.732166851		4.010634357		0.643261949
F		4.108154684		3.11307644		2.463314483
F		-0.006415205		1.790281073		0.200930099
