12
-186.35103317
Al		-1.702239468		2.559036083		-1.22846231
Al		-0.529157357		-0.00227428		-2.348380108
Al		-2.200806932		-0.335955536		-0.516995539
F		-0.757913675		3.6856248		-0.161272551
F		-3.017042887		3.176325088		-2.315815587
F		-1.374726364		-1.674479155		-1.723480711
F		-2.527912179		1.451812963		0.057122837
F		-3.245745383		-1.300051936		0.601352423
F		0.622745377		-0.518384744		-3.644851032
F		-0.338556787		1.892182327		-2.348788715
F		-2.455318781		0.47428535		-2.30371709
F		-0.303220342		0.158680358		-0.400663583
