12
-186.35103317
Al		-1.700930967		2.559302321		-1.229898134
Al		-0.530959004		-5.884e-06		-2.34760222
Al		-2.200959158		-0.33862148		-0.515629429
F		-0.75751997		3.685704909		-0.161704569
F		-3.017175664		3.17629807		-2.315669895
F		-1.37681692		-1.674904513		-1.721186728
F		-2.526335298		1.450052356		0.053955449
F		-3.247003376		-1.302531526		0.602211302
F		0.621594124		-0.516395348		-3.643066224
F		-0.335952601		1.894793632		-2.350209248
F		-2.454969725		0.474356369		-2.304100112
F		-0.302742541		0.158777576		-0.401187878
