12
-186.35103317
Al		-1.703838747		2.558710681		-1.226707414
Al		-0.526955344		-0.005046764		-2.34933086
Al		-2.200620878		-0.33269716		-0.518665229
F		-0.75839487		3.685526889		-0.160744529
F		-3.016880604		3.17635811		-2.315993655
F		-1.37217124		-1.673959273		-1.726284468
F		-2.529839478		1.453964816		0.060994089
F		-3.244207836		-1.297021326		0.600302682
F		0.624152464		-0.520816228		-3.647032464
F		-0.341739681		1.888990732		-2.347052508
F		-2.455745405		0.474198549		-2.303248952
F		-0.303804321		0.158561536		-0.400022778
