12
-186.35103317
Al		-1.701076356		2.559272739		-1.229738598
Al		-0.530758821		-0.000257928		-2.347688652
Al		-2.200942244		-0.338325264		-0.515781219
F		-0.757563715		3.685696008		-0.161656567
F		-3.017160911		3.176301072		-2.315686083
F		-1.376584636		-1.674857251		-1.721441615
F		-2.526510507		1.450247979		0.054307381
F		-3.246863599		-1.302256016		0.602115871
F		0.621722041		-0.516616392		-3.643264536
F		-0.336241955		1.894503487		-2.350051411
F		-2.455008509		0.474348478		-2.304057554
F		-0.30279563		0.158766774		-0.401129623
