12
-186.35103317
Al		-1.705147248		2.558444443		-1.22527159
Al		-0.525153697		-0.00731516		-2.350108748
Al		-2.200468652		-0.330031216		-0.520031339
F		-0.758788575		3.68544678		-0.160312511
F		-3.016747827		3.176385128		-2.316139347
F		-1.370080684		-1.673533915		-1.728578451
F		-2.531416359		1.455725423		0.064161477
F		-3.242949843		-1.294541736		0.599443803
F		0.625303717		-0.522805624		-3.648817272
F		-0.344343867		1.886379427		-2.345631975
F		-2.456094461		0.47412753		-2.30286593
F		-0.304282122		0.158464318		-0.399498483
