12
-186.35103317
Al		-1.705292637		2.558414861		-1.225112054
Al		-0.524953514		-0.007567204		-2.35019518
Al		-2.200451738		-0.329735		-0.520183129
F		-0.75883232		3.685437879		-0.160264509
F		-3.016733074		3.17638813		-2.316155535
F		-1.3698484		-1.673486653		-1.728833338
F		-2.531591568		1.455921046		0.064513409
F		-3.242810066		-1.294266226		0.599348372
F		0.625431634		-0.523026668		-3.649015584
F		-0.344633221		1.886089282		-2.345474138
F		-2.456133245		0.474119639		-2.302823372
F		-0.304335211		0.158453516		-0.399440228
