12
-186.35103317
Al		-1.705583415		2.558355697		-1.224792982
Al		-0.524553148		-0.008071292		-2.350368044
Al		-2.20041791		-0.329142568		-0.520486709
F		-0.75891981		3.685420077		-0.160168505
F		-3.016703568		3.176394134		-2.316187911
F		-1.369383832		-1.673392129		-1.729343112
F		-2.531941986		1.456312292		0.065217273
F		-3.242530512		-1.293715206		0.59915751
F		0.625687468		-0.523468756		-3.649412208
F		-0.345211929		1.885508992		-2.345158464
F		-2.456210813		0.474103857		-2.302738256
F		-0.304441389		0.158431912		-0.399323718
