12
-186.35103317
Al		-1.705874193		2.558296533		-1.22447391
Al		-0.524152782		-0.00857538		-2.350540908
Al		-2.200384082		-0.328550136		-0.520790289
F		-0.7590073		3.685402275		-0.160072501
F		-3.016674062		3.176400138		-2.316220287
F		-1.368919264		-1.673297605		-1.729852886
F		-2.532292404		1.456703538		0.065921137
F		-3.242250958		-1.293164186		0.598966648
F		0.625943302		-0.523910844		-3.649808832
F		-0.345790637		1.884928702		-2.34484279
F		-2.456288381		0.474088075		-2.30265314
F		-0.304547567		0.158410308		-0.399207208
