12
-186.35103317
Al		-1.706164971		2.558237369		-1.224154838
Al		-0.523752416		-0.009079468		-2.350713772
Al		-2.200350254		-0.327957704		-0.521093869
F		-0.75909479		3.685384473		-0.159976497
F		-3.016644556		3.176406142		-2.316252663
F		-1.368454696		-1.673203081		-1.73036266
F		-2.532642822		1.457094784		0.066625001
F		-3.241971404		-1.292613166		0.598775786
F		0.626199136		-0.524352932		-3.650205456
F		-0.346369345		1.884348412		-2.344527116
F		-2.456365949		0.474072293		-2.302568024
F		-0.304653745		0.158388704		-0.399090698
