12
-186.35103317
Al		-1.70631036		2.558207787		-1.223995302
Al		-0.523552233		-0.009331512		-2.350800204
Al		-2.20033334		-0.327661488		-0.521245659
F		-0.759138535		3.685375572		-0.159928495
F		-3.016629803		3.176409144		-2.316268851
F		-1.368222412		-1.673155819		-1.730617547
F		-2.532818031		1.457290407		0.066976933
F		-3.241831627		-1.292337656		0.598680355
F		0.626327053		-0.524573976		-3.650403768
F		-0.346658699		1.884058267		-2.344369279
F		-2.456404733		0.474064402		-2.302525466
F		-0.304706834		0.158377902		-0.399032443
