12
-186.35103317
Al		-1.701221745		2.559243157		-1.229579062
Al		-0.530558638		-0.000509972		-2.347775084
Al		-2.20092533		-0.338029048		-0.515933009
F		-0.75760746		3.685687107		-0.161608565
F		-3.017146158		3.176304074		-2.315702271
F		-1.376352352		-1.674809989		-1.721696502
F		-2.526685716		1.450443602		0.054659313
F		-3.246723822		-1.301980506		0.60202044
F		0.621849958		-0.516837436		-3.643462848
F		-0.336531309		1.894213342		-2.349893574
F		-2.455047293		0.474340587		-2.304014996
F		-0.302848719		0.158755972		-0.401071368
