12
-186.35103317
Al		-1.707328083		2.558000713		-1.22287855
Al		-0.522150952		-0.01109582		-2.351405228
Al		-2.200214942		-0.325587976		-0.522308189
F		-0.75944475		3.685313265		-0.159592481
F		-3.016526532		3.176430158		-2.316382167
F		-1.366596424		-1.672824985		-1.732401756
F		-2.534044494		1.458659768		0.069440457
F		-3.240853188		-1.290409086		0.598012338
F		0.627222472		-0.526121284		-3.651791952
F		-0.348684177		1.882027252		-2.34326442
F		-2.456676221		0.474009165		-2.30222756
F		-0.305078457		0.158302288		-0.398624658
