12
-186.35103317
Al		-1.707473472		2.557971131		-1.222719014
Al		-0.521950769		-0.011347864		-2.35149166
Al		-2.200198028		-0.32529176		-0.522459979
F		-0.759488495		3.685304364		-0.159544479
F		-3.016511779		3.17643316		-2.316398355
F		-1.36636414		-1.672777723		-1.732656643
F		-2.534219703		1.458855391		0.069792389
F		-3.240713411		-1.290133576		0.597916907
F		0.627350389		-0.526342328		-3.651990264
F		-0.348973531		1.881737107		-2.343106583
F		-2.456715005		0.474001274		-2.302185002
F		-0.305131546		0.158291486		-0.398566403
