12
-186.35103317
Al		-1.708200417		2.557823221		-1.221921334
Al		-0.520949854		-0.012608084		-2.35192382
Al		-2.200113458		-0.32381068		-0.523218929
F		-0.75970722		3.685259859		-0.159304469
F		-3.016438014		3.17644817		-2.316479295
F		-1.36520272		-1.672541413		-1.733931078
F		-2.535095748		1.459833506		0.071552049
F		-3.240014526		-1.288756026		0.597439752
F		0.627989974		-0.527447548		-3.652981824
F		-0.350420301		1.880286382		-2.342317398
F		-2.456908925		0.473961819		-2.301972212
F		-0.305396991		0.158237476		-0.398275128
