12
-186.35103317
Al		-1.708491195		2.557764057		-1.221602262
Al		-0.520549488		-0.013112172		-2.352096684
Al		-2.20007963		-0.323218248		-0.523522509
F		-0.75979471		3.685242057		-0.159208465
F		-3.016408508		3.176454174		-2.316511671
F		-1.364738152		-1.672446889		-1.734440852
F		-2.535446166		1.460224752		0.072255913
F		-3.239734972		-1.288205006		0.59724889
F		0.628245808		-0.527889636		-3.653378448
F		-0.350999009		1.879706092		-2.342001724
F		-2.456986493		0.473946037		-2.301887096
F		-0.305503169		0.158215872		-0.398158618
