12
-186.35103317
Al		-1.708636584		2.557734475		-1.221442726
Al		-0.520349305		-0.013364216		-2.352183116
Al		-2.200062716		-0.322922032		-0.523674299
F		-0.759838455		3.685233156		-0.159160463
F		-3.016393755		3.176457176		-2.316527859
F		-1.364505868		-1.672399627		-1.734695739
F		-2.535621375		1.460420375		0.072607845
F		-3.239595195		-1.287929496		0.597153459
F		0.628373725		-0.52811068		-3.65357676
F		-0.351288363		1.879415947		-2.341843887
F		-2.457025277		0.473938146		-2.301844538
F		-0.305556258		0.15820507		-0.398100363
