12
-186.35103317
Al		-1.708927362		2.557675311		-1.221123654
Al		-0.519948939		-0.013868304		-2.35235598
Al		-2.200028888		-0.3223296		-0.523977879
F		-0.759925945		3.685215354		-0.159064459
F		-3.016364249		3.17646318		-2.316560235
F		-1.3640413		-1.672305103		-1.735205513
F		-2.535971793		1.460811621		0.073311709
F		-3.239315641		-1.287378476		0.596962597
F		0.628629559		-0.528552768		-3.653973384
F		-0.351867071		1.878835657		-2.341528213
F		-2.457102845		0.473922364		-2.301759422
F		-0.305662436		0.158183466		-0.397983853
