12
-186.35103317
Al		-1.709072751		2.557645729		-1.220964118
Al		-0.519748756		-0.014120348		-2.352442412
Al		-2.200011974		-0.322033384		-0.524129669
F		-0.75996969		3.685206453		-0.159016457
F		-3.016349496		3.176466182		-2.316576423
F		-1.363809016		-1.672257841		-1.7354604
F		-2.536147002		1.461007244		0.073663641
F		-3.239175864		-1.287102966		0.596867166
F		0.628757476		-0.528773812		-3.654171696
F		-0.352156425		1.878545512		-2.341370376
F		-2.457141629		0.473914473		-2.301716864
F		-0.305715525		0.158172664		-0.397925598
