12
-186.35103317
Al		-1.709654307		2.557527401		-1.220325974
Al		-0.518948024		-0.015128524		-2.35278814
Al		-2.199944318		-0.32084852		-0.524736829
F		-0.76014467		3.685170849		-0.158824449
F		-3.016290484		3.17647819		-2.316641175
F		-1.36287988		-1.672068793		-1.736479948
F		-2.536847838		1.461789736		0.075071369
F		-3.238616756		-1.286000926		0.596485442
F		0.629269144		-0.529657988		-3.654964944
F		-0.353313841		1.877384932		-2.340739028
F		-2.457296765		0.473882909		-2.301546632
F		-0.305927881		0.158129456		-0.397692578
