12
-186.35103317
Al		-1.709945085		2.557468237		-1.220006902
Al		-0.518547658		-0.015632612		-2.352961004
Al		-2.19991049		-0.320256088		-0.525040409
F		-0.76023216		3.685153047		-0.158728445
F		-3.016260978		3.176484194		-2.316673551
F		-1.362415312		-1.671974269		-1.736989722
F		-2.537198256		1.462180982		0.075775233
F		-3.238337202		-1.285449906		0.59629458
F		0.629524978		-0.530100076		-3.655361568
F		-0.353892549		1.876804642		-2.340423354
F		-2.457374333		0.473867127		-2.301461516
F		-0.306034059		0.158107852		-0.397576068
