12
-186.35103317
Al		-1.710090474		2.557438655		-1.219847366
Al		-0.518347475		-0.015884656		-2.353047436
Al		-2.199893576		-0.319959872		-0.525192199
F		-0.760275905		3.685144146		-0.158680443
F		-3.016246225		3.176487196		-2.316689739
F		-1.362183028		-1.671927007		-1.737244609
F		-2.537373465		1.462376605		0.076127165
F		-3.238197425		-1.285174396		0.596199149
F		0.629652895		-0.53032112		-3.65555988
F		-0.354181903		1.876514497		-2.340265517
F		-2.457413117		0.473859236		-2.301418958
F		-0.306087148		0.15809705		-0.397517813
