12
-186.35103317
Al		-1.710235863		2.557409073		-1.21968783
Al		-0.518147292		-0.0161367		-2.353133868
Al		-2.199876662		-0.319663656		-0.525343989
F		-0.76031965		3.685135245		-0.158632441
F		-3.016231472		3.176490198		-2.316705927
F		-1.361950744		-1.671879745		-1.737499496
F		-2.537548674		1.462572228		0.076479097
F		-3.238057648		-1.284898886		0.596103718
F		0.629780812		-0.530542164		-3.655758192
F		-0.354471257		1.876224352		-2.34010768
F		-2.457451901		0.473851345		-2.3013764
F		-0.306140237		0.158086248		-0.397459558
