12
-186.35103317
Al		-1.710381252		2.557379491		-1.219528294
Al		-0.517947109		-0.016388744		-2.3532203
Al		-2.199859748		-0.31936744		-0.525495779
F		-0.760363395		3.685126344		-0.158584439
F		-3.016216719		3.1764932		-2.316722115
F		-1.36171846		-1.671832483		-1.737754383
F		-2.537723883		1.462767851		0.076831029
F		-3.237917871		-1.284623376		0.596008287
F		0.629908729		-0.530763208		-3.655956504
F		-0.354760611		1.875934207		-2.339949843
F		-2.457490685		0.473843454		-2.301333842
F		-0.306193326		0.158075446		-0.397401303
