12
-186.35103317
Al		-1.710526641		2.557349909		-1.219368758
Al		-0.517746926		-0.016640788		-2.353306732
Al		-2.199842834		-0.319071224		-0.525647569
F		-0.76040714		3.685117443		-0.158536437
F		-3.016201966		3.176496202		-2.316738303
F		-1.361486176		-1.671785221		-1.73800927
F		-2.537899092		1.462963474		0.077182961
F		-3.237778094		-1.284347866		0.595912856
F		0.630036646		-0.530984252		-3.656154816
F		-0.355049965		1.875644062		-2.339792006
F		-2.457529469		0.473835563		-2.301291284
F		-0.306246415		0.158064644		-0.397343048
