12
-186.35103317
Al		-1.710817419		2.557290745		-1.219049686
Al		-0.51734656		-0.017144876		-2.353479596
Al		-2.199809006		-0.318478792		-0.525951149
F		-0.76049463		3.685099641		-0.158440433
F		-3.01617246		3.176502206		-2.316770679
F		-1.361021608		-1.671690697		-1.738519044
F		-2.53824951		1.46335472		0.077886825
F		-3.23749854		-1.283796846		0.595721994
F		0.63029248		-0.53142634		-3.65655144
F		-0.355628673		1.875063772		-2.339476332
F		-2.457607037		0.473819781		-2.301206168
F		-0.306352593		0.15804304		-0.397226538
