12
-186.35103317
Al		-1.711108197		2.557231581		-1.218730614
Al		-0.516946194		-0.017648964		-2.35365246
Al		-2.199775178		-0.31788636		-0.526254729
F		-0.76058212		3.685081839		-0.158344429
F		-3.016142954		3.17650821		-2.316803055
F		-1.36055704		-1.671596173		-1.739028818
F		-2.538599928		1.463745966		0.078590689
F		-3.237218986		-1.283245826		0.595531132
F		0.630548314		-0.531868428		-3.656948064
F		-0.356207381		1.874483482		-2.339160658
F		-2.457684605		0.473803999		-2.301121052
F		-0.306458771		0.158021436		-0.397110028
