12
-186.35103317
Al		-1.711835142		2.557083671		-1.217932934
Al		-0.515945279		-0.018909184		-2.35408462
Al		-2.199690608		-0.31640528		-0.527013679
F		-0.760800845		3.685037334		-0.158104419
F		-3.016069189		3.17652322		-2.316883995
F		-1.35939562		-1.671359863		-1.740303253
F		-2.539475973		1.464724081		0.080350349
F		-3.236520101		-1.281868276		0.595053977
F		0.631187899		-0.532973648		-3.657939624
F		-0.357654151		1.873032757		-2.338371473
F		-2.457878525		0.473764544		-2.300908262
F		-0.306724216		0.157967426		-0.396818753
