12
-186.35103317
Al		-1.71212592		2.557024507		-1.217613862
Al		-0.515544913		-0.019413272		-2.354257484
Al		-2.19965678		-0.315812848		-0.527317259
F		-0.760888335		3.685019532		-0.158008415
F		-3.016039683		3.176529224		-2.316916371
F		-1.358931052		-1.671265339		-1.740813027
F		-2.539826391		1.465115327		0.081054213
F		-3.236240547		-1.281317256		0.594863115
F		0.631443733		-0.533415736		-3.658336248
F		-0.358232859		1.872452467		-2.338055799
F		-2.457956093		0.473748762		-2.300823146
F		-0.306830394		0.157945822		-0.396702243
