12
-186.35103317
Al		-1.701803301		2.559124829		-1.228940918
Al		-0.529757906		-0.001518148		-2.348120812
Al		-2.200857674		-0.336844184		-0.516540169
F		-0.75778244		3.685651503		-0.161416557
F		-3.017087146		3.176316082		-2.315767023
F		-1.375423216		-1.674620941		-1.72271605
F		-2.527386552		1.451226094		0.056067041
F		-3.246164714		-1.300878466		0.601638716
F		0.622361626		-0.517721612		-3.644256096
F		-0.337688725		1.893052762		-2.349262226
F		-2.455202429		0.474309023		-2.303844764
F		-0.303061075		0.158712764		-0.400838348
