12
-186.35103317
Al		-1.712271309		2.556994925		-1.217454326
Al		-0.51534473		-0.019665316		-2.354343916
Al		-2.199639866		-0.315516632		-0.527469049
F		-0.76093208		3.685010631		-0.157960413
F		-3.01602493		3.176532226		-2.316932559
F		-1.358698768		-1.671218077		-1.741067914
F		-2.5400016		1.46531095		0.081406145
F		-3.23610077		-1.281041746		0.594767684
F		0.63157165		-0.53363678		-3.65853456
F		-0.358522213		1.872162322		-2.337897962
F		-2.457994877		0.473740871		-2.300780588
F		-0.306883483		0.15793502		-0.396643988
