12
-186.35103317
Al		-1.712416698		2.556965343		-1.21729479
Al		-0.515144547		-0.01991736		-2.354430348
Al		-2.199622952		-0.315220416		-0.527620839
F		-0.760975825		3.68500173		-0.157912411
F		-3.016010177		3.176535228		-2.316948747
F		-1.358466484		-1.671170815		-1.741322801
F		-2.540176809		1.465506573		0.081758077
F		-3.235960993		-1.280766236		0.594672253
F		0.631699567		-0.533857824		-3.658732872
F		-0.358811567		1.871872177		-2.337740125
F		-2.458033661		0.47373298		-2.30073803
F		-0.306936572		0.157924218		-0.396585733
