12
-186.35103317
Al		-1.712707476		2.556906179		-1.216975718
Al		-0.514744181		-0.020421448		-2.354603212
Al		-2.199589124		-0.314627984		-0.527924419
F		-0.761063315		3.684983928		-0.157816407
F		-3.015980671		3.176541232		-2.316981123
F		-1.358001916		-1.671076291		-1.741832575
F		-2.540527227		1.465897819		0.082461941
F		-3.235681439		-1.280215216		0.594481391
F		0.631955401		-0.534299912		-3.659129496
F		-0.359390275		1.871291887		-2.337424451
F		-2.458111229		0.473717198		-2.300652914
F		-0.30704275		0.157902614		-0.396469223
