12
-186.35103317
Al		-1.712852865		2.556876597		-1.216816182
Al		-0.514543998		-0.020673492		-2.354689644
Al		-2.19957221		-0.314331768		-0.528076209
F		-0.76110706		3.684975027		-0.157768405
F		-3.015965918		3.176544234		-2.316997311
F		-1.357769632		-1.671029029		-1.742087462
F		-2.540702436		1.466093442		0.082813873
F		-3.235541662		-1.279939706		0.59438596
F		0.632083318		-0.534520956		-3.659327808
F		-0.359679629		1.871001742		-2.337266614
F		-2.458150013		0.473709307		-2.300610356
F		-0.307095839		0.157891812		-0.396410968
