12
-186.35103317
Al		-1.713289032		2.556787851		-1.216337574
Al		-0.513943449		-0.021429624		-2.35494894
Al		-2.199521468		-0.31344312		-0.528531579
F		-0.761238295		3.684948324		-0.157624399
F		-3.015921659		3.17655324		-2.317045875
F		-1.35707278		-1.670887243		-1.742852123
F		-2.541228063		1.466680311		0.083869669
F		-3.235122331		-1.279113176		0.594099667
F		0.632467069		-0.535184088		-3.659922744
F		-0.360547691		1.870131307		-2.336793103
F		-2.458266365		0.473685634		-2.300482682
F		-0.307255106		0.157859406		-0.396236203
