12
-186.35103317
Al		-1.713434421		2.556758269		-1.216178038
Al		-0.513743266		-0.021681668		-2.355035372
Al		-2.199504554		-0.313146904		-0.528683369
F		-0.76128204		3.684939423		-0.157576397
F		-3.015906906		3.176556242		-2.317062063
F		-1.356840496		-1.670839981		-1.74310701
F		-2.541403272		1.466875934		0.084221601
F		-3.234982554		-1.278837666		0.594004236
F		0.632594986		-0.535405132		-3.660121056
F		-0.360837045		1.869841162		-2.336635266
F		-2.458305149		0.473677743		-2.300440124
F		-0.307308195		0.157848604		-0.396177948
