12
-186.35103317
Al		-1.71357981		2.556728687		-1.216018502
Al		-0.513543083		-0.021933712		-2.355121804
Al		-2.19948764		-0.312850688		-0.528835159
F		-0.761325785		3.684930522		-0.157528395
F		-3.015892153		3.176559244		-2.317078251
F		-1.356608212		-1.670792719		-1.743361897
F		-2.541578481		1.467071557		0.084573533
F		-3.234842777		-1.278562156		0.593908805
F		0.632722903		-0.535626176		-3.660319368
F		-0.361126399		1.869551017		-2.336477429
F		-2.458343933		0.473669852		-2.300397566
F		-0.307361284		0.157837802		-0.396119693
