12
-186.35103317
Al		-1.70194869		2.559095247		-1.228781382
Al		-0.529557723		-0.001770192		-2.348207244
Al		-2.20084076		-0.336547968		-0.516691959
F		-0.757826185		3.685642602		-0.161368555
F		-3.017072393		3.176319084		-2.315783211
F		-1.375190932		-1.674573679		-1.722970937
F		-2.527561761		1.451421717		0.056418973
F		-3.246024937		-1.300602956		0.601543285
F		0.622489543		-0.517942656		-3.644454408
F		-0.337978079		1.892762617		-2.349104389
F		-2.455241213		0.474301132		-2.303802206
F		-0.303114164		0.158701962		-0.400780093
