12
-186.35103317
Al		-1.714452144		2.556551195		-1.215061286
Al		-0.512341985		-0.023445976		-2.355640396
Al		-2.199386156		-0.311073392		-0.529745899
F		-0.761588255		3.684877116		-0.157240383
F		-3.015803635		3.176577256		-2.317175379
F		-1.355214508		-1.670509147		-1.744891219
F		-2.542629735		1.468245295		0.086685125
F		-3.234004115		-1.276909096		0.593336219
F		0.633490405		-0.53695244		-3.66150924
F		-0.362862523		1.867810147		-2.335530407
F		-2.458576637		0.473622506		-2.300142218
F		-0.307679818		0.15777299		-0.395770163
