12
-186.35103317
Al		-1.714888311		2.556462449		-1.214582678
Al		-0.511741436		-0.024202108		-2.355899692
Al		-2.199335414		-0.310184744		-0.530201269
F		-0.76171949		3.684850413		-0.157096377
F		-3.015759376		3.176586262		-2.317223943
F		-1.354517656		-1.670367361		-1.74565588
F		-2.543155362		1.468832164		0.087740921
F		-3.233584784		-1.276082566		0.593049926
F		0.633874156		-0.537615572		-3.662104176
F		-0.363730585		1.866939712		-2.335056896
F		-2.458692989		0.473598833		-2.300014544
F		-0.307839085		0.157740584		-0.395595398
