12
-186.35103317
Al		-1.699186299		2.559657305		-1.231812566
Al		-0.5333612		0.003018644		-2.346565036
Al		-2.201162126		-0.342176072		-0.513807949
F		-0.75699503		3.685811721		-0.162280593
F		-3.0173527		3.176262046		-2.315475639
F		-1.379604328		-1.675471657		-1.718128084
F		-2.52423279		1.44770488		0.049732265
F		-3.2486807		-1.305837646		0.603356474
F		0.62005912		-0.51374282		-3.64068648
F		-0.332480353		1.898275372		-2.352103292
F		-2.454504317		0.474451061		-2.304610808
F		-0.302105473		0.1589072		-0.401886938
