12
-186.35103317
Al		-1.698750132		2.559746051		-1.232291174
Al		-0.533961749		0.003774776		-2.34630574
Al		-2.201212868		-0.34306472		-0.513352579
F		-0.756863795		3.685838424		-0.162424599
F		-3.017396959		3.17625304		-2.315427075
F		-1.38030118		-1.675613443		-1.717363423
F		-2.523707163		1.447118011		0.048676469
F		-3.249100031		-1.306664176		0.603642767
F		0.619675369		-0.513079688		-3.640091544
F		-0.331612291		1.899145807		-2.352576803
F		-2.454387965		0.474474734		-2.304738482
F		-0.301946206		0.158939606		-0.402061703
