12
-186.35103317
Al		-1.698313965		2.559834797		-1.232769782
Al		-0.534562298		0.004530908		-2.346046444
Al		-2.20126361		-0.343953368		-0.512897209
F		-0.75673256		3.685865127		-0.162568605
F		-3.017441218		3.176244034		-2.315378511
F		-1.380998032		-1.675755229		-1.716598762
F		-2.523181536		1.446531142		0.047620673
F		-3.249519362		-1.307490706		0.60392906
F		0.619291618		-0.512416556		-3.639496608
F		-0.330744229		1.900016242		-2.353050314
F		-2.454271613		0.474498407		-2.304866156
F		-0.301786939		0.158972012		-0.402236468
