12
-186.35103317
Al		-1.698023187		2.559893961		-1.233088854
Al		-0.534962664		0.005034996		-2.34587358
Al		-2.201297438		-0.3445458		-0.512593629
F		-0.75664507		3.685882929		-0.162664609
F		-3.017470724		3.17623803		-2.315346135
F		-1.3814626		-1.675849753		-1.716088988
F		-2.522831118		1.446139896		0.046916809
F		-3.249798916		-1.308041726		0.604119922
F		0.619035784		-0.511974468		-3.639099984
F		-0.330165521		1.900596532		-2.353365988
F		-2.454194045		0.474514189		-2.304951272
F		-0.301680761		0.158993616		-0.402352978
