12
-186.35103317
Al		-1.700349411		2.559420649		-1.230536278
Al		-0.531759736		0.001002292		-2.347256492
Al		-2.201026814		-0.339806344		-0.515022269
F		-0.75734499		3.685740513		-0.161896577
F		-3.017234676		3.176286062		-2.315605143
F		-1.377746056		-1.675093561		-1.72016718
F		-2.525634462		1.449269864		0.052547721
F		-3.247562484		-1.303633566		0.602593026
F		0.621082456		-0.515511172		-3.642272976
F		-0.334795185		1.895954212		-2.350840596
F		-2.454814589		0.474387933		-2.304270344
F		-0.302530185		0.158820784		-0.401420898
