12
-186.35103317
Al		-1.69758702		2.559982707		-1.233567462
Al		-0.535563213		0.005791128		-2.345614284
Al		-2.20134818		-0.345434448		-0.512138259
F		-0.756513835		3.685909632		-0.162808615
F		-3.017514983		3.176229024		-2.315297571
F		-1.382159452		-1.675991539		-1.715324327
F		-2.522305491		1.445553027		0.045861013
F		-3.250218247		-1.308868256		0.604406215
F		0.618652033		-0.511311336		-3.638505048
F		-0.329297459		1.901466967		-2.353839499
F		-2.454077693		0.474537862		-2.305078946
F		-0.301521494		0.159026022		-0.402527743
