12
-186.35103317
Al		-1.697005464		2.560101035		-1.234205606
Al		-0.536363945		0.006799304		-2.345268556
Al		-2.201415836		-0.346619312		-0.511531099
F		-0.756338855		3.685945236		-0.163000623
F		-3.017573995		3.176217016		-2.315232819
F		-1.383088588		-1.676180587		-1.714304779
F		-2.521604655		1.444770535		0.044453285
F		-3.250777355		-1.309970296		0.604787939
F		0.618140365		-0.51042716		-3.6377118
F		-0.328140043		1.902627547		-2.354470847
F		-2.453922557		0.474569426		-2.305249178
F		-0.301309138		0.15906923		-0.402760763
