12
-186.35103317
Al		-1.696423908		2.560219363		-1.23484375
Al		-0.537164677		0.00780748		-2.344922828
Al		-2.201483492		-0.347804176		-0.510923939
F		-0.756163875		3.68598084		-0.163192631
F		-3.017633007		3.176205008		-2.315168067
F		-1.384017724		-1.676369635		-1.713285231
F		-2.520903819		1.443988043		0.043045557
F		-3.251336463		-1.311072336		0.605169663
F		0.617628697		-0.509542984		-3.636918552
F		-0.326982627		1.903788127		-2.355102195
F		-2.453767421		0.47460099		-2.30541941
F		-0.301096782		0.159112438		-0.402993783
