12
-186.35103317
Al		-1.695987741		2.560308109		-1.235322358
Al		-0.537765226		0.008563612		-2.344663532
Al		-2.201534234		-0.348692824		-0.510468569
F		-0.75603264		3.686007543		-0.163336637
F		-3.017677266		3.176196002		-2.315119503
F		-1.384714576		-1.676511421		-1.71252057
F		-2.520378192		1.443401174		0.041989761
F		-3.251755794		-1.311898866		0.605455956
F		0.617244946		-0.508879852		-3.636323616
F		-0.326114565		1.904658562		-2.355575706
F		-2.453651069		0.474624663		-2.305547084
F		-0.300937515		0.159144844		-0.403168548
