12
-186.35103317
Al		-1.695406185		2.560426437		-1.235960502
Al		-0.538565958		0.009571788		-2.344317804
Al		-2.20160189		-0.349877688		-0.509861409
F		-0.75585766		3.686043147		-0.163528645
F		-3.017736278		3.176183994		-2.315054751
F		-1.385643712		-1.676700469		-1.711501022
F		-2.519677356		1.442618682		0.040582033
F		-3.252314902		-1.313000906		0.60583768
F		0.616733278		-0.507995676		-3.635530368
F		-0.324957149		1.905819142		-2.356207054
F		-2.453495933		0.474656227		-2.305717316
F		-0.300725159		0.159188052		-0.403401568
