12
-186.35103317
Al		-1.695115407		2.560485601		-1.236279574
Al		-0.538966324		0.010075876		-2.34414494
Al		-2.201635718		-0.35047012		-0.509557829
F		-0.75577017		3.686060949		-0.163624649
F		-3.017765784		3.17617799		-2.315022375
F		-1.38610828		-1.676794993		-1.710991248
F		-2.519326938		1.442227436		0.039878169
F		-3.252594456		-1.313551926		0.606028542
F		0.616477444		-0.507553588		-3.635133744
F		-0.324378441		1.906399432		-2.356522728
F		-2.453418365		0.474672009		-2.305802432
F		-0.300618981		0.159209656		-0.403518078
