12
-186.35103317
Al		-1.69467924		2.560574347		-1.236758182
Al		-0.539566873		0.010832008		-2.343885644
Al		-2.20168646		-0.351358768		-0.509102459
F		-0.755638935		3.686087652		-0.163768655
F		-3.017810043		3.176168984		-2.314973811
F		-1.386805132		-1.676936779		-1.710226587
F		-2.518801311		1.441640567		0.038822373
F		-3.253013787		-1.314378456		0.606314835
F		0.616093693		-0.506890456		-3.634538808
F		-0.323510379		1.907269867		-2.356996239
F		-2.453302013		0.474695682		-2.305930106
F		-0.300459714		0.159242062		-0.403692843
