12
-186.35103317
Al		-1.694533851		2.560603929		-1.236917718
Al		-0.539767056		0.011084052		-2.343799212
Al		-2.201703374		-0.351654984		-0.508950669
F		-0.75559519		3.686096553		-0.163816657
F		-3.017824796		3.176165982		-2.314957623
F		-1.387037416		-1.676984041		-1.7099717
F		-2.518626102		1.441444944		0.038470441
F		-3.253153564		-1.314653966		0.606410266
F		0.615965776		-0.506669412		-3.634340496
F		-0.323221025		1.907560012		-2.357154076
F		-2.453263229		0.474703573		-2.305972664
F		-0.300406625		0.159252864		-0.403751098
