12
-186.35103317
Al		-1.694388462		2.560633511		-1.237077254
Al		-0.539967239		0.011336096		-2.34371278
Al		-2.201720288		-0.3519512		-0.508798879
F		-0.755551445		3.686105454		-0.163864659
F		-3.017839549		3.17616298		-2.314941435
F		-1.3872697		-1.677031303		-1.709716813
F		-2.518450893		1.441249321		0.038118509
F		-3.253293341		-1.314929476		0.606505697
F		0.615837859		-0.506448368		-3.634142184
F		-0.322931671		1.907850157		-2.357311913
F		-2.453224445		0.474711464		-2.306015222
F		-0.300353536		0.159263666		-0.403809353
