12
-186.35103317
Al		-1.694243073		2.560663093		-1.23723679
Al		-0.540167422		0.01158814		-2.343626348
Al		-2.201737202		-0.352247416		-0.508647089
F		-0.7555077		3.686114355		-0.163912661
F		-3.017854302		3.176159978		-2.314925247
F		-1.387501984		-1.677078565		-1.709461926
F		-2.518275684		1.441053698		0.037766577
F		-3.253433118		-1.315204986		0.606601128
F		0.615709942		-0.506227324		-3.633943872
F		-0.322642317		1.908140302		-2.35746975
F		-2.453185661		0.474719355		-2.30605778
F		-0.300300447		0.159274468		-0.403867608
