12
-186.35103317
Al		-1.694097684		2.560692675		-1.237396326
Al		-0.540367605		0.011840184		-2.343539916
Al		-2.201754116		-0.352543632		-0.508495299
F		-0.755463955		3.686123256		-0.163960663
F		-3.017869055		3.176156976		-2.314909059
F		-1.387734268		-1.677125827		-1.709207039
F		-2.518100475		1.440858075		0.037414645
F		-3.253572895		-1.315480496		0.606696559
F		0.615582025		-0.50600628		-3.63374556
F		-0.322352963		1.908430447		-2.357627587
F		-2.453146877		0.474727246		-2.306100338
F		-0.300247358		0.15928527		-0.403925863
