12
-186.35103317
Al		-1.693806906		2.560751839		-1.237715398
Al		-0.540767971		0.012344272		-2.343367052
Al		-2.201787944		-0.353136064		-0.508191719
F		-0.755376465		3.686141058		-0.164056667
F		-3.017898561		3.176150972		-2.314876683
F		-1.388198836		-1.677220351		-1.708697265
F		-2.517750057		1.440466829		0.036710781
F		-3.253852449		-1.316031516		0.606887421
F		0.615326191		-0.505564192		-3.633348936
F		-0.321774255		1.909010737		-2.357943261
F		-2.453069309		0.474743028		-2.306185454
F		-0.30014118		0.159306874		-0.404042373
