12
-186.35103317
Al		-1.693516128		2.560811003		-1.23803447
Al		-0.541168337		0.01284836		-2.343194188
Al		-2.201821772		-0.353728496		-0.507888139
F		-0.755288975		3.68615886		-0.164152671
F		-3.017928067		3.176144968		-2.314844307
F		-1.388663404		-1.677314875		-1.708187491
F		-2.517399639		1.440075583		0.036006917
F		-3.254132003		-1.316582536		0.607078283
F		0.615070357		-0.505122104		-3.632952312
F		-0.321195547		1.909591027		-2.358258935
F		-2.452991741		0.47475881		-2.30627057
F		-0.300035002		0.159328478		-0.404158883
