12
-186.35103317
Al		-1.691626071		2.561195569		-1.240108438
Al		-0.543770716		0.016124932		-2.342070572
Al		-2.202041654		-0.357579304		-0.505914869
F		-0.75472029		3.686274573		-0.164776697
F		-3.018119856		3.176105942		-2.314633863
F		-1.391683096		-1.677929281		-1.70487396
F		-2.515121922		1.437532484		0.031431801
F		-3.255949104		-1.320164166		0.608318886
F		0.613407436		-0.502248532		-3.630374256
F		-0.317433945		1.913362912		-2.360310816
F		-2.452487549		0.474861393		-2.306823824
F		-0.299344845		0.159468904		-0.404916198
