12
-186.35103317
Al		-1.691335293		2.561254733		-1.24042751
Al		-0.544171082		0.01662902		-2.341897708
Al		-2.202075482		-0.358171736		-0.505611289
F		-0.7546328		3.686292375		-0.164872701
F		-3.018149362		3.176099938		-2.314601487
F		-1.392147664		-1.678023805		-1.704364186
F		-2.514771504		1.437141238		0.030727937
F		-3.256228658		-1.320715186		0.608509748
F		0.613151602		-0.501806444		-3.629977632
F		-0.316855237		1.913943202		-2.36062649
F		-2.452409981		0.474877175		-2.30690894
F		-0.299238667		0.159490508		-0.405032708
