12
-186.35103317
Al		-1.691044515		2.561313897		-1.240746582
Al		-0.544571448		0.017133108		-2.341724844
Al		-2.20210931		-0.358764168		-0.505307709
F		-0.75454531		3.686310177		-0.164968705
F		-3.018178868		3.176093934		-2.314569111
F		-1.392612232		-1.678118329		-1.703854412
F		-2.514421086		1.436749992		0.030024073
F		-3.256508212		-1.321266206		0.60870061
F		0.612895768		-0.501364356		-3.629581008
F		-0.316276529		1.914523492		-2.360942164
F		-2.452332413		0.474892957		-2.306994056
F		-0.299132489		0.159512112		-0.405149218
