12
-186.35103317
Al		-1.690753737		2.561373061		-1.241065654
Al		-0.544971814		0.017637196		-2.34155198
Al		-2.202143138		-0.3593566		-0.505004129
F		-0.75445782		3.686327979		-0.165064709
F		-3.018208374		3.17608793		-2.314536735
F		-1.3930768		-1.678212853		-1.703344638
F		-2.514070668		1.436358746		0.029320209
F		-3.256787766		-1.321817226		0.608891472
F		0.612639934		-0.500922268		-3.629184384
F		-0.315697821		1.915103782		-2.361257838
F		-2.452254845		0.474908739		-2.307079172
F		-0.299026311		0.159533716		-0.405265728
