12
-186.35103317
Al		-1.690462959		2.561432225		-1.241384726
Al		-0.54537218		0.018141284		-2.341379116
Al		-2.202176966		-0.359949032		-0.504700549
F		-0.75437033		3.686345781		-0.165160713
F		-3.01823788		3.176081926		-2.314504359
F		-1.393541368		-1.678307377		-1.702834864
F		-2.51372025		1.4359675		0.028616345
F		-3.25706732		-1.322368246		0.609082334
F		0.6123841		-0.50048018		-3.62878776
F		-0.315119113		1.915684072		-2.361573512
F		-2.452177277		0.474924521		-2.307164288
F		-0.298920133		0.15955532		-0.405382238
