12
-186.35103317
Al		-1.689881403		2.561550553		-1.24202287
Al		-0.546172912		0.01914946		-2.341033388
Al		-2.202244622		-0.361133896		-0.504093389
F		-0.75419535		3.686381385		-0.165352721
F		-3.018296892		3.176069918		-2.314439607
F		-1.394470504		-1.678496425		-1.701815316
F		-2.513019414		1.435185008		0.027208617
F		-3.257626428		-1.323470286		0.609464058
F		0.611872432		-0.499596004		-3.627994512
F		-0.313961697		1.916844652		-2.36220486
F		-2.452022141		0.474956085		-2.30733452
F		-0.298707777		0.159598528		-0.405615258
