12
-186.35103317
Al		-1.689445236		2.561639299		-1.242501478
Al		-0.546773461		0.019905592		-2.340774092
Al		-2.202295364		-0.362022544		-0.503638019
F		-0.754064115		3.686408088		-0.165496727
F		-3.018341151		3.176060912		-2.314391043
F		-1.395167356		-1.678638211		-1.701050655
F		-2.512493787		1.434598139		0.026152821
F		-3.258045759		-1.324296816		0.609750351
F		0.611488681		-0.498932872		-3.627399576
F		-0.313093635		1.917715087		-2.362678371
F		-2.451905789		0.474979758		-2.307462194
F		-0.29854851		0.159630934		-0.405790023
