12
-186.35103317
Al		-1.689154458		2.561698463		-1.24282055
Al		-0.547173827		0.02040968		-2.340601228
Al		-2.202329192		-0.362614976		-0.503334439
F		-0.753976625		3.68642589		-0.165592731
F		-3.018370657		3.176054908		-2.314358667
F		-1.395631924		-1.678732735		-1.700540881
F		-2.512143369		1.434206893		0.025448957
F		-3.258325313		-1.324847836		0.609941213
F		0.611232847		-0.498490784		-3.627002952
F		-0.312514927		1.918295377		-2.362994045
F		-2.451828221		0.47499554		-2.30754731
F		-0.298442332		0.159652538		-0.405906533
