12
-186.35103317
Al		-1.68886368		2.561757627		-1.243139622
Al		-0.547574193		0.020913768		-2.340428364
Al		-2.20236302		-0.363207408		-0.503030859
F		-0.753889135		3.686443692		-0.165688735
F		-3.018400163		3.176048904		-2.314326291
F		-1.396096492		-1.678827259		-1.700031107
F		-2.511792951		1.433815647		0.024745093
F		-3.258604867		-1.325398856		0.610132075
F		0.610977013		-0.498048696		-3.626606328
F		-0.311936219		1.918875667		-2.363309719
F		-2.451750653		0.475011322		-2.307632426
F		-0.298336154		0.159674142		-0.406023043
