12
-186.35103317
Al		-1.688427513		2.561846373		-1.24361823
Al		-0.548174742		0.0216699		-2.340169068
Al		-2.202413762		-0.364096056		-0.502575489
F		-0.7537579		3.686470395		-0.165832741
F		-3.018444422		3.176039898		-2.314277727
F		-1.396793344		-1.678969045		-1.699266446
F		-2.511267324		1.433228778		0.023689297
F		-3.259024198		-1.326225386		0.610418368
F		0.610593262		-0.497385564		-3.626011392
F		-0.311068157		1.919746102		-2.36378323
F		-2.451634301		0.475034995		-2.3077601
F		-0.298176887		0.159706548		-0.406197808
