12
-186.35103317
Al		-1.688282124		2.561875955		-1.243777766
Al		-0.548374925		0.021921944		-2.340082636
Al		-2.202430676		-0.364392272		-0.502423699
F		-0.753714155		3.686479296		-0.165880743
F		-3.018459175		3.176036896		-2.314261539
F		-1.397025628		-1.679016307		-1.699011559
F		-2.511092115		1.433033155		0.023337365
F		-3.259163975		-1.326500896		0.610513799
F		0.610465345		-0.49716452		-3.62581308
F		-0.310778803		1.920036247		-2.363941067
F		-2.451595517		0.475042886		-2.307802658
F		-0.298123798		0.15971735		-0.406256063
