12
-186.35103317
Al		-1.688136735		2.561905537		-1.243937302
Al		-0.548575108		0.022173988		-2.339996204
Al		-2.20244759		-0.364688488		-0.502271909
F		-0.75367041		3.686488197		-0.165928745
F		-3.018473928		3.176033894		-2.314245351
F		-1.397257912		-1.679063569		-1.698756672
F		-2.510916906		1.432837532		0.022985433
F		-3.259303752		-1.326776406		0.61060923
F		0.610337428		-0.496943476		-3.625614768
F		-0.310489449		1.920326392		-2.364098904
F		-2.451556733		0.475050777		-2.307845216
F		-0.298070709		0.159728152		-0.406314318
