12
-186.35103317
Al		-1.687700568		2.561994283		-1.24441591
Al		-0.549175657		0.02293012		-2.339736908
Al		-2.202498332		-0.365577136		-0.501816539
F		-0.753539175		3.6865149		-0.166072751
F		-3.018518187		3.176024888		-2.314196787
F		-1.397954764		-1.679205355		-1.697992011
F		-2.510391279		1.432250663		0.021929637
F		-3.259723083		-1.327602936		0.610895523
F		0.609953677		-0.496280344		-3.625019832
F		-0.309621387		1.921196827		-2.364572415
F		-2.451440381		0.47507445		-2.30797289
F		-0.297911442		0.159760558		-0.406489083
