12
-186.35103317
Al		-1.686973623		2.562142193		-1.24521359
Al		-0.550176572		0.02419034		-2.339304748
Al		-2.202582902		-0.367058216		-0.501057589
F		-0.75332045		3.686559405		-0.166312761
F		-3.018591952		3.176009878		-2.314115847
F		-1.399116184		-1.679441665		-1.696717576
F		-2.509515234		1.431272548		0.020169977
F		-3.260421968		-1.328980486		0.611372678
F		0.609314092		-0.495175124		-3.624028272
F		-0.308174617		1.922647552		-2.3653616
F		-2.451246461		0.475113905		-2.30818568
F		-0.297645997		0.159814568		-0.406780358
