12
-186.35103317
Al		-1.686828234		2.562171775		-1.245373126
Al		-0.550376755		0.024442384		-2.339218316
Al		-2.202599816		-0.367354432		-0.500905799
F		-0.753276705		3.686568306		-0.166360763
F		-3.018606705		3.176006876		-2.314099659
F		-1.399348468		-1.679488927		-1.696462689
F		-2.509340025		1.431076925		0.019818045
F		-3.260561745		-1.329255996		0.611468109
F		0.609186175		-0.49495408		-3.62382996
F		-0.307885263		1.922937697		-2.365519437
F		-2.451207677		0.475121796		-2.308228238
F		-0.297592908		0.15982537		-0.406838613
