12
-186.35103317
Al		-1.686537456		2.562230939		-1.245692198
Al		-0.550777121		0.024946472		-2.339045452
Al		-2.202633644		-0.367946864		-0.500602219
F		-0.753189215		3.686586108		-0.166456767
F		-3.018636211		3.176000872		-2.314067283
F		-1.399813036		-1.679583451		-1.695952915
F		-2.508989607		1.430685679		0.019114181
F		-3.260841299		-1.329807016		0.611658971
F		0.608930341		-0.494511992		-3.623433336
F		-0.307306555		1.923517987		-2.365835111
F		-2.451130109		0.475137578		-2.308313354
F		-0.29748673		0.159846974		-0.406955123
