12
-186.56215295
Al		-0.364015588		1.03329733		-1.819321907
Al		-0.447604416		1.074367186		1.281276027
Al		-3.020028201		0.458529825		-1.858840674
F		-3.531751266		0.314731551		-3.599844696
F		-1.37691911		-0.561876024		-1.842269724
F		-1.944869371		2.06608013		-1.892391451
F		-2.034168323		0.715738587		0.45579415
F		0.595972236		1.269848036		-0.294627784
F		-0.301852066		2.738938313		1.990791982
F		0.366702378		-0.354529335		2.049789462
F		-4.276841781		0.211286619		-0.580692878
F		0.746798448		1.24638912		-3.233711858
