12
-186.56215295
Al		-0.363928738		1.03334206		-1.817960846
Al		-0.445151331		1.074830641		1.277778861
Al		-3.020983083		0.458318748		-1.859087859
F		-3.532149165		0.314625486		-3.600897111
F		-1.374389678		-0.559524504		-1.842143598
F		-1.941595873		2.064988799		-1.892199661
F		-2.033359637		0.715925175		0.456413719
F		0.591974616		1.269008687		-0.293337265
F		-0.302167831		2.737252694		1.990289881
F		0.365722908		-0.353143911		2.049228798
F		-4.277723907		0.211114656		-0.579713363
F		0.744870909		1.246005873		-3.231964184
