12
-186.56215295
Al		-0.363909438		1.033352		-1.817658388
Al		-0.444606201		1.074933631		1.277001713
Al		-3.021195279		0.458271842		-1.859142789
F		-3.532237587		0.314601916		-3.601130981
F		-1.373827582		-0.559001944		-1.84211557
F		-1.940868429		2.064746281		-1.892157041
F		-2.033179929		0.715966639		0.456551401
F		0.591086256		1.268822165		-0.293050483
F		-0.302238001		2.736878112		1.990178303
F		0.365505248		-0.352836039		2.049104206
F		-4.277919935		0.211076442		-0.579495693
F		0.744442567		1.245920707		-3.231575812
