12
-186.56215295
Al		-0.363899788		1.03335697		-1.817507159
Al		-0.444333636		1.074985126		1.276613139
Al		-3.021301377		0.458248389		-1.859170254
F		-3.532281798		0.314590131		-3.601247916
F		-1.373546534		-0.558740664		-1.842101556
F		-1.940504707		2.064625022		-1.892135731
F		-2.033090075		0.715987371		0.456620242
F		0.590642076		1.268728904		-0.292907092
F		-0.302273086		2.736690821		1.990122514
F		0.365396418		-0.352682103		2.04904191
F		-4.278017949		0.211057335		-0.579386858
F		0.744228396		1.245878124		-3.231381626
