12
-186.56215295
Al		-0.363880488		1.03336691		-1.817204701
Al		-0.443788506		1.075088116		1.275835991
Al		-3.021513573		0.458201483		-1.859225184
F		-3.53237022		0.314566561		-3.601481786
F		-1.372984438		-0.558218104		-1.842073528
F		-1.939777263		2.064382504		-1.892093111
F		-2.032910367		0.716028835		0.456757924
F		0.589753716		1.268542382		-0.29262031
F		-0.302343256		2.736316239		1.990010936
F		0.365178758		-0.352374231		2.048917318
F		-4.278213977		0.211019121		-0.579169188
F		0.743800054		1.245792958		-3.230993254
