12
-186.56215295
Al		-0.363870838		1.03337188		-1.817053472
Al		-0.443515941		1.075139611		1.275447417
Al		-3.021619671		0.45817803		-1.859252649
F		-3.532414431		0.314554776		-3.601598721
F		-1.37270339		-0.557956824		-1.842059514
F		-1.939413541		2.064261245		-1.892071801
F		-2.032820513		0.716049567		0.456826765
F		0.589309536		1.268449121		-0.292476919
F		-0.302378341		2.736128948		1.989955147
F		0.365069928		-0.352220295		2.048855022
F		-4.278311991		0.211000014		-0.579060353
F		0.743585883		1.245750375		-3.230799068
