12
-186.56215295
Al		-0.363851538		1.03338182		-1.816751014
Al		-0.442970811		1.075242601		1.274670269
Al		-3.021831867		0.458131124		-1.859307579
F		-3.532502853		0.314531206		-3.601832591
F		-1.372141294		-0.557434264		-1.842031486
F		-1.938686097		2.064018727		-1.892029181
F		-2.032640805		0.716091031		0.456964447
F		0.588421176		1.268262599		-0.292190137
F		-0.302448511		2.735754366		1.989843569
F		0.364852268		-0.351912423		2.04873043
F		-4.278508019		0.2109618		-0.578842683
F		0.743157541		1.245665209		-3.230410696
