12
-186.56215295
Al		-0.363841888		1.03338679		-1.816599785
Al		-0.442698246		1.075294096		1.274281695
Al		-3.021937965		0.458107671		-1.859335044
F		-3.532547064		0.314519421		-3.601949526
F		-1.371860246		-0.557172984		-1.842017472
F		-1.938322375		2.063897468		-1.892007871
F		-2.032550951		0.716111763		0.457033288
F		0.587976996		1.268169338		-0.292046746
F		-0.302483596		2.735567075		1.98978778
F		0.364743438		-0.351758487		2.048668134
F		-4.278606033		0.210942693		-0.578733848
F		0.74294337		1.245622626		-3.23021651
