12
-186.56215295
Al		-0.364005938		1.0333023		-1.819170678
Al		-0.447331851		1.074418681		1.280887453
Al		-3.020134299		0.458506372		-1.858868139
F		-3.531795477		0.314719766		-3.599961631
F		-1.376638062		-0.561614744		-1.84225571
F		-1.944505649		2.065958871		-1.892370141
F		-2.034078469		0.715759319		0.455862991
F		0.595528056		1.269754775		-0.294484393
F		-0.301887151		2.738751022		1.990736193
F		0.366593548		-0.354375399		2.049727166
F		-4.276939795		0.211267512		-0.580584043
F		0.746584277		1.246346537		-3.233517672
