12
-186.56215295
Al		-0.363812938		1.0334017		-1.816146098
Al		-0.441880551		1.075448581		1.273115973
Al		-3.022256259		0.458037312		-1.859417439
F		-3.532679697		0.314484066		-3.602300331
F		-1.371017102		-0.556389144		-1.84197543
F		-1.937231209		2.063533691		-1.891943941
F		-2.032281389		0.716173959		0.457239811
F		0.586644456		1.267889555		-0.291616573
F		-0.302588851		2.735005202		1.989620413
F		0.364416948		-0.351296679		2.048481246
F		-4.278900075		0.210885372		-0.578407343
F		0.742300857		1.245494877		-3.229633952
