12
-186.56215295
Al		-0.363745388		1.03343649		-1.815087495
Al		-0.439972596		1.075809046		1.270395955
Al		-3.022998945		0.457873141		-1.859609694
F		-3.532989174		0.314401571		-3.603118876
F		-1.369049766		-0.554560184		-1.841877332
F		-1.934685155		2.062684878		-1.891794771
F		-2.031652411		0.716319083		0.457721698
F		0.583535196		1.267236728		-0.290612836
F		-0.302834446		2.733694165		1.98922989
F		0.363655138		-0.350219127		2.048045174
F		-4.279586173		0.210751623		-0.577645498
F		0.74080166		1.245196796		-3.22827465
