12
-186.56215295
Al		-0.363735738		1.03344146		-1.814936266
Al		-0.439700031		1.075860541		1.270007381
Al		-3.023105043		0.457849688		-1.859637159
F		-3.533033385		0.314389786		-3.603235811
F		-1.368768718		-0.554298904		-1.841863318
F		-1.934321433		2.062563619		-1.891773461
F		-2.031562557		0.716339815		0.457790539
F		0.583091016		1.267143467		-0.290469445
F		-0.302869531		2.733506874		1.989174101
F		0.363546308		-0.350065191		2.047982878
F		-4.279684187		0.210732516		-0.577536663
F		0.740587489		1.245154213		-3.228080464
