12
-186.56215295
Al		-0.363726088		1.03344643		-1.814785037
Al		-0.439427466		1.075912036		1.269618807
Al		-3.023211141		0.457826235		-1.859664624
F		-3.533077596		0.314378001		-3.603352746
F		-1.36848767		-0.554037624		-1.841849304
F		-1.933957711		2.06244236		-1.891752151
F		-2.031472703		0.716360547		0.45785938
F		0.582646836		1.267050206		-0.290326054
F		-0.302904616		2.733319583		1.989118312
F		0.363437478		-0.349911255		2.047920582
F		-4.279782201		0.210713409		-0.577427828
F		0.740373318		1.24511163		-3.227886278
