12
-186.56215295
Al		-0.363716438		1.0334514		-1.814633808
Al		-0.439154901		1.075963531		1.269230233
Al		-3.023317239		0.457802782		-1.859692089
F		-3.533121807		0.314366216		-3.603469681
F		-1.368206622		-0.553776344		-1.84183529
F		-1.933593989		2.062321101		-1.891730841
F		-2.031382849		0.716381279		0.457928221
F		0.582202656		1.266956945		-0.290182663
F		-0.302939701		2.733132292		1.989062523
F		0.363328648		-0.349757319		2.047858286
F		-4.279880215		0.210694302		-0.577318993
F		0.740159147		1.245069047		-3.227692092
