12
-186.56215295
Al		-0.363706788		1.03345637		-1.814482579
Al		-0.438882336		1.076015026		1.268841659
Al		-3.023423337		0.457779329		-1.859719554
F		-3.533166018		0.314354431		-3.603586616
F		-1.367925574		-0.553515064		-1.841821276
F		-1.933230267		2.062199842		-1.891709531
F		-2.031292995		0.716402011		0.457997062
F		0.581758476		1.266863684		-0.290039272
F		-0.302974786		2.732945001		1.989006734
F		0.363219818		-0.349603383		2.04779599
F		-4.279978229		0.210675195		-0.577210158
F		0.739944976		1.245026464		-3.227497906
