12
-186.56215295
Al		-0.363677838		1.03347128		-1.814028892
Al		-0.438064641		1.076169511		1.267675937
Al		-3.023741631		0.45770897		-1.859801949
F		-3.533298651		0.314319076		-3.603937421
F		-1.36708243		-0.552731224		-1.841779234
F		-1.932139101		2.061836065		-1.891645601
F		-2.031023433		0.716464207		0.458203585
F		0.580425936		1.266583901		-0.289609099
F		-0.303080041		2.732383128		1.988839367
F		0.362893328		-0.349141575		2.047609102
F		-4.280272271		0.210617874		-0.576883653
F		0.739302463		1.244898715		-3.226915348
