12
-186.56215295
Al		-0.363658538		1.03348122		-1.813726434
Al		-0.437519511		1.076272501		1.266898789
Al		-3.023953827		0.457662064		-1.859856879
F		-3.533387073		0.314295506		-3.604171291
F		-1.366520334		-0.552208664		-1.841751206
F		-1.931411657		2.061593547		-1.891602981
F		-2.030843725		0.716505671		0.458341267
F		0.579537576		1.266397379		-0.289322317
F		-0.303150211		2.732008546		1.988727789
F		0.362675668		-0.348833703		2.04748451
F		-4.280468299		0.21057966		-0.576665983
F		0.738874121		1.244813549		-3.226526976
