12
-186.56215295
Al		-0.363986638		1.03331224		-1.81886822
Al		-0.446786721		1.074521671		1.280110305
Al		-3.020346495		0.458459466		-1.858923069
F		-3.531883899		0.314696196		-3.600195501
F		-1.376075966		-0.561092184		-1.842227682
F		-1.943778205		2.065716353		-1.892327521
F		-2.033898761		0.715800783		0.456000673
F		0.594639696		1.269568253		-0.294197611
F		-0.301957321		2.73837644		1.990624615
F		0.366375888		-0.354067527		2.049602574
F		-4.277135823		0.211229298		-0.580366373
F		0.746155935		1.246261371		-3.2331293
