12
-186.56215295
Al		-0.363590988		1.03351601		-1.812667831
Al		-0.435611556		1.076632966		1.264178771
Al		-3.024696513		0.457497893		-1.860049134
F		-3.53369655		0.314213011		-3.604989836
F		-1.364552998		-0.550379704		-1.841653108
F		-1.928865603		2.060744734		-1.891453811
F		-2.030214747		0.716650795		0.458823154
F		0.576428316		1.265744552		-0.28831858
F		-0.303395806		2.730697509		1.988337266
F		0.361913858		-0.347756151		2.047048438
F		-4.281154397		0.210445911		-0.575904138
F		0.737374924		1.244515468		-3.225167674
