12
-186.56215295
Al		-0.363542738		1.03354086		-1.811911686
Al		-0.434248731		1.076890441		1.262235901
Al		-3.025227003		0.457380628		-1.860186459
F		-3.533917605		0.314154086		-3.605574511
F		-1.363147758		-0.549073304		-1.841583038
F		-1.927046993		2.060138439		-1.891347261
F		-2.029765477		0.716754455		0.459167359
F		0.574207416		1.265278247		-0.287601625
F		-0.303571231		2.729761054		1.988058321
F		0.361369708		-0.346986471		2.046736958
F		-4.281644467		0.210350376		-0.575359963
F		0.736304069		1.244302553		-3.224196744
