12
-186.56215295
Al		-0.363533088		1.03354583		-1.811760457
Al		-0.433976166		1.076941936		1.261847327
Al		-3.025333101		0.457357175		-1.860213924
F		-3.533961816		0.314142301		-3.605691446
F		-1.36286671		-0.548812024		-1.841569024
F		-1.926683271		2.06001718		-1.891325951
F		-2.029675623		0.716775187		0.4592362
F		0.573763236		1.265184986		-0.287458234
F		-0.303606316		2.729573763		1.988002532
F		0.361260878		-0.346832535		2.046674662
F		-4.281742481		0.210331269		-0.575251128
F		0.736089898		1.24425997		-3.224002558
