12
-186.56215295
Al		-0.363494488		1.03356571		-1.811155541
Al		-0.432885906		1.077147916		1.260293031
Al		-3.025757493		0.457263363		-1.860323784
F		-3.53413866		0.314095161		-3.606159186
F		-1.361742518		-0.547766904		-1.841512968
F		-1.925228383		2.059532144		-1.891240711
F		-2.029316207		0.716858115		0.459511564
F		0.571986516		1.264811942		-0.28688467
F		-0.303746656		2.728824599		1.987779376
F		0.360825558		-0.346216791		2.046425478
F		-4.282134537		0.210254841		-0.574815788
F		0.735233214		1.244089638		-3.223225814
