12
-186.56215295
Al		-0.363484838		1.03357068		-1.811004312
Al		-0.432613341		1.077199411		1.259904457
Al		-3.025863591		0.45723991		-1.860351249
F		-3.534182871		0.314083376		-3.606276121
F		-1.36146147		-0.547505624		-1.841498954
F		-1.924864661		2.059410885		-1.891219401
F		-2.029226353		0.716878847		0.459580405
F		0.571542336		1.264718681		-0.286741279
F		-0.303781741		2.728637308		1.987723587
F		0.360716728		-0.346062855		2.046363182
F		-4.282232551		0.210235734		-0.574706953
F		0.735019043		1.244047055		-3.223031628
