12
-186.56215295
Al		-0.363967338		1.03332218		-1.818565762
Al		-0.446241591		1.074624661		1.279333157
Al		-3.020558691		0.45841256		-1.858977999
F		-3.531972321		0.314672626		-3.600429371
F		-1.37551387		-0.560569624		-1.842199654
F		-1.943050761		2.065473835		-1.892284901
F		-2.033719053		0.715842247		0.456138355
F		0.593751336		1.269381731		-0.293910829
F		-0.302027491		2.738001858		1.990513037
F		0.366158228		-0.353759655		2.049477982
F		-4.277331851		0.211191084		-0.580148703
F		0.745727593		1.246176205		-3.232740928
