12
-186.56215295
Al		-0.363446238		1.03359056		-1.810399396
Al		-0.431523081		1.077405391		1.258350161
Al		-3.026287983		0.457146098		-1.860461109
F		-3.534359715		0.314036236		-3.606743861
F		-1.360337278		-0.546460504		-1.841442898
F		-1.923409773		2.058925849		-1.891134161
F		-2.028866937		0.716961775		0.459855769
F		0.569765616		1.264345637		-0.286167715
F		-0.303922081		2.727888144		1.987500431
F		0.360281408		-0.345447111		2.046113998
F		-4.282624607		0.210159306		-0.574271613
F		0.734162359		1.243876723		-3.222254884
