12
-186.56215295
Al		-0.363957688		1.03332715		-1.818414533
Al		-0.445969026		1.074676156		1.278944583
Al		-3.020664789		0.458389107		-1.859005464
F		-3.532016532		0.314660841		-3.600546306
F		-1.375232822		-0.560308344		-1.84218564
F		-1.942687039		2.065352576		-1.892263591
F		-2.033629199		0.715862979		0.456207196
F		0.593307156		1.26928847		-0.293767438
F		-0.302062576		2.737814567		1.990457248
F		0.366049398		-0.353605719		2.049415686
F		-4.277429865		0.211171977		-0.580039868
F		0.745513422		1.246133622		-3.232546742
