12
-186.56215295
Al		-0.363330438		1.0336502		-1.808584648
Al		-0.428252301		1.078023331		1.253687273
Al		-3.027561159		0.456864662		-1.860790689
F		-3.534890247		0.313894816		-3.608147081
F		-1.356964702		-0.543325144		-1.84127473
F		-1.919045109		2.057470741		-1.890878441
F		-2.027788689		0.717210559		0.460681861
F		0.564435456		1.263226505		-0.284447023
F		-0.304343101		2.725640652		1.986830963
F		0.358975448		-0.343599879		2.045366446
F		-4.283800775		0.209930022		-0.572965593
F		0.731592307		1.243365727		-3.219924652
