12
-186.56215295
Al		-0.363311138		1.03366014		-1.80828219
Al		-0.427707171		1.078126321		1.252910125
Al		-3.027773355		0.456817756		-1.860845619
F		-3.534978669		0.313871246		-3.608380951
F		-1.356402606		-0.542802584		-1.841246702
F		-1.918317665		2.057228223		-1.890835821
F		-2.027608981		0.717252023		0.460819543
F		0.563547096		1.263039983		-0.284160241
F		-0.304413271		2.72526607		1.986719385
F		0.358757788		-0.343292007		2.045241854
F		-4.283996803		0.209891808		-0.572747923
F		0.731163965		1.243280561		-3.21953628
