12
-186.56215295
Al		-0.363948038		1.03333212		-1.818263304
Al		-0.445696461		1.074727651		1.278556009
Al		-3.020770887		0.458365654		-1.859032929
F		-3.532060743		0.314649056		-3.600663241
F		-1.374951774		-0.560047064		-1.842171626
F		-1.942323317		2.065231317		-1.892242281
F		-2.033539345		0.715883711		0.456276037
F		0.592862976		1.269195209		-0.293624047
F		-0.302097661		2.737627276		1.990401459
F		0.365940568		-0.353451783		2.04935339
F		-4.277527879		0.21115287		-0.579931033
F		0.745299251		1.246091039		-3.232352556
