12
-186.56215295
Al		-0.363224288		1.03370487		-1.806921129
Al		-0.425254086		1.078589776		1.249412959
Al		-3.028728237		0.456606679		-1.861092804
F		-3.535376568		0.313765181		-3.609433366
F		-1.353873174		-0.540451064		-1.841120576
F		-1.915044167		2.056136892		-1.890644031
F		-2.026800295		0.717438611		0.461439112
F		0.559549476		1.262200634		-0.282869722
F		-0.304729036		2.723580451		1.986217284
F		0.357778318		-0.341906583		2.04468119
F		-4.284878929		0.209719845		-0.571768408
F		0.729236426		1.242897314		-3.217788606
