12
-186.56215295
Al		-0.363195338		1.03371978		-1.806467442
Al		-0.424436391		1.078744261		1.248247237
Al		-3.029046531		0.45653632		-1.861175199
F		-3.535509201		0.313729826		-3.609784171
F		-1.35303003		-0.539667224		-1.841078534
F		-1.913953001		2.055773115		-1.890580101
F		-2.026530733		0.717500807		0.461645635
F		0.558216936		1.261920851		-0.282439549
F		-0.304834291		2.723018578		1.986049917
F		0.357451828		-0.341444775		2.044494302
F		-4.285172971		0.209662524		-0.571441903
F		0.728593913		1.242769565		-3.217206048
