12
-186.56215295
Al		-0.363185688		1.03372475		-1.806316213
Al		-0.424163826		1.078795756		1.247858663
Al		-3.029152629		0.456512867		-1.861202664
F		-3.535553412		0.313718041		-3.609901106
F		-1.352748982		-0.539405944		-1.84106452
F		-1.913589279		2.055651856		-1.890558791
F		-2.026440879		0.717521539		0.461714476
F		0.557772756		1.26182759		-0.282296158
F		-0.304869376		2.722831287		1.985994128
F		0.357342998		-0.341290839		2.044432006
F		-4.285270985		0.209643417		-0.571333068
F		0.728379742		1.242726982		-3.217011862
