12
-186.56215295
Al		-0.363938388		1.03333709		-1.818112075
Al		-0.445423896		1.074779146		1.278167435
Al		-3.020876985		0.458342201		-1.859060394
F		-3.532104954		0.314637271		-3.600780176
F		-1.374670726		-0.559785784		-1.842157612
F		-1.941959595		2.065110058		-1.892220971
F		-2.033449491		0.715904443		0.456344878
F		0.592418796		1.269101948		-0.293480656
F		-0.302132746		2.737439985		1.99034567
F		0.365831738		-0.353297847		2.049291094
F		-4.277625893		0.211133763		-0.579822198
F		0.74508508		1.246048456		-3.23215837
