12
-186.56215295
Al		-0.363118138		1.03375954		-1.80525761
Al		-0.422255871		1.079156221		1.245138645
Al		-3.029895315		0.456348696		-1.861394919
F		-3.535862889		0.313635546		-3.610719651
F		-1.350781646		-0.537576984		-1.840966422
F		-1.911043225		2.054803043		-1.890409621
F		-2.025811901		0.717666663		0.462196363
F		0.554663496		1.261174763		-0.281292421
F		-0.305114971		2.72152025		1.985603605
F		0.356581188		-0.340213287		2.043995934
F		-4.285957083		0.209509668		-0.570571223
F		0.726880545		1.242428901		-3.21565256
