12
-186.56215295
Al		-0.363089188		1.03377445		-1.804803923
Al		-0.421438176		1.079310706		1.243972923
Al		-3.030213609		0.456278337		-1.861477314
F		-3.535995522		0.313600191		-3.611070456
F		-1.349938502		-0.536793144		-1.84092438
F		-1.909952059		2.054439266		-1.890345691
F		-2.025542339		0.717728859		0.462402886
F		0.553330956		1.26089498		-0.280862248
F		-0.305220226		2.720958377		1.985436238
F		0.356254698		-0.339751479		2.043809046
F		-4.286251125		0.209452347		-0.570244718
F		0.726238032		1.242301152		-3.215070002
