12
-186.56215295
Al		-0.363069888		1.03378439		-1.804501465
Al		-0.420893046		1.079413696		1.243195775
Al		-3.030425805		0.456231431		-1.861532244
F		-3.536083944		0.313576621		-3.611304326
F		-1.349376406		-0.536270584		-1.840896352
F		-1.909224615		2.054196748		-1.890303071
F		-2.025362631		0.717770323		0.462540568
F		0.552442596		1.260708458		-0.280575466
F		-0.305290396		2.720583795		1.98532466
F		0.356037038		-0.339443607		2.043684454
F		-4.286447153		0.209414133		-0.570027048
F		0.72580969		1.242215986		-3.21468163
