12
-186.56215295
Al		-0.364141038		1.03323272		-1.821287884
Al		-0.451147761		1.073697751		1.286327489
Al		-3.018648927		0.458834714		-1.858483629
F		-3.531176523		0.314884756		-3.598324541
F		-1.380572734		-0.565272664		-1.842451906
F		-1.949597757		2.067656497		-1.892668481
F		-2.035336425		0.715469071		0.454899217
F		0.601746576		1.271060429		-0.296491867
F		-0.301395961		2.741373096		1.991517239
F		0.368117168		-0.356530503		2.05059931
F		-4.275567599		0.21153501		-0.582107733
F		0.749582671		1.246942699		-3.236236276
