12
-186.56215295
Al		-0.364198938		1.0332029		-1.822195258
Al		-0.452783151		1.073388781		1.288658933
Al		-3.018012339		0.458975432		-1.858318839
F		-3.530911257		0.314955466		-3.597622931
F		-1.382259022		-0.566840344		-1.84253599
F		-1.951780089		2.068384051		-1.892796341
F		-2.035875549		0.715344679		0.454486171
F		0.604411656		1.271619995		-0.297352213
F		-0.301185451		2.742496842		1.991851973
F		0.368770148		-0.357454119		2.050973086
F		-4.274979515		0.211649652		-0.582760743
F		0.750867697		1.247198197		-3.237401392
