12
-186.56215295
Al		-0.364208588		1.03319793		-1.822346487
Al		-0.453055716		1.073337286		1.289047507
Al		-3.017906241		0.458998885		-1.858291374
F		-3.530867046		0.314967251		-3.597505996
F		-1.38254007		-0.567101624		-1.842550004
F		-1.952143811		2.06850531		-1.892817651
F		-2.035965403		0.715323947		0.45441733
F		0.604855836		1.271713256		-0.297495604
F		-0.301150366		2.742684133		1.991907762
F		0.368878978		-0.357608055		2.051035382
F		-4.274881501		0.211668759		-0.582869578
F		0.751081868		1.24724078		-3.237595578
