12
-186.56215295
Al		-0.364237538		1.03318302		-1.822800174
Al		-0.453873411		1.073182801		1.290213229
Al		-3.017587947		0.459069244		-1.858208979
F		-3.530734413		0.315002606		-3.597155191
F		-1.383383214		-0.567885464		-1.842592046
F		-1.953234977		2.068869087		-1.892881581
F		-2.036234965		0.715261751		0.454210807
F		0.606188376		1.271993039		-0.297925777
F		-0.301045111		2.743246006		1.992075129
F		0.369205468		-0.358069863		2.05122227
F		-4.274587459		0.21172608		-0.583196083
F		0.751724381		1.247368529		-3.238178136
