12
-186.56215295
Al		-0.364276138		1.03316314		-1.82340509
Al		-0.454963671		1.072976821		1.291767525
Al		-3.017163555		0.459163056		-1.858099119
F		-3.530557569		0.315049746		-3.596687451
F		-1.384507406		-0.568930584		-1.842648102
F		-1.954689865		2.069354123		-1.892966821
F		-2.036594381		0.715178823		0.453935443
F		0.607965096		1.272366083		-0.298499341
F		-0.300904771		2.74399517		1.992298285
F		0.369640788		-0.358685607		2.051471454
F		-4.274195403		0.211802508		-0.583631423
F		0.752581065		1.247538861		-3.23895488
