12
-186.56215295
Al		-0.364285788		1.03315817		-1.823556319
Al		-0.455236236		1.072925326		1.292156099
Al		-3.017057457		0.459186509		-1.858071654
F		-3.530513358		0.315061531		-3.596570516
F		-1.384788454		-0.569191864		-1.842662116
F		-1.955053587		2.069475382		-1.892988131
F		-2.036684235		0.715158091		0.453866602
F		0.608409276		1.272459344		-0.298642732
F		-0.300869686		2.744182461		1.992354074
F		0.369749618		-0.358839543		2.05153375
F		-4.274097389		0.211821615		-0.583740258
F		0.752795236		1.247581444		-3.239149066
