12
-186.56215295
Al		-0.364314738		1.03314326		-1.824010006
Al		-0.456053931		1.072770841		1.293321821
Al		-3.016739163		0.459256868		-1.857989259
F		-3.530380725		0.315096886		-3.596219711
F		-1.385631598		-0.569975704		-1.842704158
F		-1.956144753		2.069839159		-1.893052061
F		-2.036953797		0.715095895		0.453660079
F		0.609741816		1.272739127		-0.299072905
F		-0.300764431		2.744744334		1.992521441
F		0.370076108		-0.359301351		2.051720638
F		-4.273803347		0.211878936		-0.584066763
F		0.753437749		1.247709193		-3.239731624
