12
-186.56215295
Al		-0.364324388		1.03313829		-1.824161235
Al		-0.456326496		1.072719346		1.293710395
Al		-3.016633065		0.459280321		-1.857961794
F		-3.530336514		0.315108671		-3.596102776
F		-1.385912646		-0.570236984		-1.842718172
F		-1.956508475		2.069960418		-1.893073371
F		-2.037043651		0.715075163		0.453591238
F		0.610185996		1.272832388		-0.299216296
F		-0.300729346		2.744931625		1.99257723
F		0.370184938		-0.359455287		2.051782934
F		-4.273705333		0.211898043		-0.584175598
F		0.75365192		1.247751776		-3.23992581
