12
-186.56215295
Al		-0.364391938		1.0331035		-1.825219838
Al		-0.458234451		1.072358881		1.296430413
Al		-3.015890379		0.459444492		-1.857769539
F		-3.530027037		0.315191166		-3.595284231
F		-1.387879982		-0.572065944		-1.84281627
F		-1.959054529		2.070809231		-1.893222541
F		-2.037672629		0.714930039		0.453109351
F		0.613295256		1.273485215		-0.300220033
F		-0.300483751		2.746242662		1.992967753
F		0.370946748		-0.360532839		2.052219006
F		-4.273019235		0.212031792		-0.584937443
F		0.755151117		1.248049857		-3.241285112
