12
-186.56215295
Al		-0.364401588		1.03309853		-1.825371067
Al		-0.458507016		1.072307386		1.296818987
Al		-3.015784281		0.459467945		-1.857742074
F		-3.529982826		0.315202951		-3.595167296
F		-1.38816103		-0.572327224		-1.842830284
F		-1.959418251		2.07093049		-1.893243851
F		-2.037762483		0.714909307		0.45304051
F		0.613739436		1.273578476		-0.300363424
F		-0.300448666		2.746429953		1.993023542
F		0.371055578		-0.360686775		2.052281302
F		-4.272921221		0.212050899		-0.585046278
F		0.755365288		1.24809244		-3.241479298
