12
-186.56215295
Al		-0.364063838		1.03327248		-1.820078052
Al		-0.448967241		1.074109711		1.283218897
Al		-3.019497711		0.45864709		-1.858703349
F		-3.531530211		0.314790476		-3.599260021
F		-1.37832435		-0.563182424		-1.842339794
F		-1.946687981		2.066686425		-1.892498001
F		-2.034617593		0.715634927		0.455449945
F		0.598193136		1.270314341		-0.295344739
F		-0.301676641		2.739874768		1.991070927
F		0.367246528		-0.355299015		2.050100942
F		-4.276351711		0.211382154		-0.581237053
F		0.747869303		1.246602035		-3.234682788
