12
-186.56215295
Al		-0.364420888		1.03308859		-1.825673525
Al		-0.459052146		1.072204396		1.297596135
Al		-3.015572085		0.459514851		-1.857687144
F		-3.529894404		0.315226521		-3.594933426
F		-1.388723126		-0.572849784		-1.842858312
F		-1.960145695		2.071173008		-1.893286471
F		-2.037942191		0.714867843		0.452902828
F		0.614627796		1.273764998		-0.300650206
F		-0.300378496		2.746804535		1.99313512
F		0.371273238		-0.360994647		2.052405894
F		-4.272725193		0.212089113		-0.585263948
F		0.75579363		1.248177606		-3.24186767
