12
-186.56215295
Al		-0.364440188		1.03307865		-1.825975983
Al		-0.459597276		1.072101406		1.298373283
Al		-3.015359889		0.459561757		-1.857632214
F		-3.529805982		0.315250091		-3.594699556
F		-1.389285222		-0.573372344		-1.84288634
F		-1.960873139		2.071415526		-1.893329091
F		-2.038121899		0.714826379		0.452765146
F		0.615516156		1.27395152		-0.300936988
F		-0.300308326		2.747179117		1.993246698
F		0.371490898		-0.361302519		2.052530486
F		-4.272529165		0.212127327		-0.585481618
F		0.756221972		1.248262772		-3.242256042
