12
-186.56215295
Al		-0.364498088		1.03304883		-1.826883357
Al		-0.461232666		1.071792436		1.300704727
Al		-3.014723301		0.459702475		-1.857467424
F		-3.529540716		0.315320801		-3.593997946
F		-1.39097151		-0.574940024		-1.842970424
F		-1.963055471		2.07214308		-1.893456951
F		-2.038661023		0.714701987		0.4523521
F		0.618181236		1.274511086		-0.301797334
F		-0.300097816		2.748302863		1.993581432
F		0.372143878		-0.362226135		2.052904262
F		-4.271941081		0.212241969		-0.586134628
F		0.757506998		1.24851827		-3.243421158
