12
-186.56215295
Al		-0.364073488		1.03326751		-1.820229281
Al		-0.449239806		1.074058216		1.283607471
Al		-3.019391613		0.458670543		-1.858675884
F		-3.531486		0.314802261		-3.599143086
F		-1.378605398		-0.563443704		-1.842353808
F		-1.947051703		2.066807684		-1.892519311
F		-2.034707447		0.715614195		0.455381104
F		0.598637316		1.270407602		-0.29548813
F		-0.301641556		2.740062059		1.991126716
F		0.367355358		-0.355452951		2.050163238
F		-4.276253697		0.211401261		-0.581345888
F		0.748083474		1.246644618		-3.234876974
