12
-186.56215295
Al		-0.364507738		1.03304386		-1.827034586
Al		-0.461505231		1.071740941		1.301093301
Al		-3.014617203		0.459725928		-1.857439959
F		-3.529496505		0.315332586		-3.593881011
F		-1.391252558		-0.575201304		-1.842984438
F		-1.963419193		2.072264339		-1.893478261
F		-2.038750877		0.714681255		0.452283259
F		0.618625416		1.274604347		-0.301940725
F		-0.300062731		2.748490154		1.993637221
F		0.372252708		-0.362380071		2.052966558
F		-4.271843067		0.212261076		-0.586243463
F		0.757721169		1.248560853		-3.243615344
