12
-186.56215295
Al		-0.364517388		1.03303889		-1.827185815
Al		-0.461777796		1.071689446		1.301481875
Al		-3.014511105		0.459749381		-1.857412494
F		-3.529452294		0.315344371		-3.593764076
F		-1.391533606		-0.575462584		-1.842998452
F		-1.963782915		2.072385598		-1.893499571
F		-2.038840731		0.714660523		0.452214418
F		0.619069596		1.274697608		-0.302084116
F		-0.300027646		2.748677445		1.99369301
F		0.372361538		-0.362534007		2.053028854
F		-4.271745053		0.212280183		-0.586352298
F		0.75793534		1.248603436		-3.24380953
