12
-186.56215295
Al		-0.364575288		1.03300907		-1.828093189
Al		-0.463413186		1.071380476		1.303813319
Al		-3.013874517		0.459890099		-1.857247704
F		-3.529187028		0.315415081		-3.593062466
F		-1.393219894		-0.577030264		-1.843082536
F		-1.965965247		2.073113152		-1.893627431
F		-2.039379855		0.714536131		0.451801372
F		0.621734676		1.275257174		-0.302944462
F		-0.299817136		2.749801191		1.994027744
F		0.373014518		-0.363457623		2.05340263
F		-4.271156969		0.212394825		-0.587005308
F		0.759220366		1.248858934		-3.244974646
