12
-186.56215295
Al		-0.364652488		1.03296931		-1.829303021
Al		-0.465593706		1.070968516		1.306921911
Al		-3.013025733		0.460077723		-1.857027984
F		-3.52883334		0.315509361		-3.592126986
F		-1.395468278		-0.579120504		-1.843194648
F		-1.968875023		2.074083224		-1.893797911
F		-2.040098687		0.714370275		0.451250644
F		0.625288116		1.276003262		-0.30409159
F		-0.299536456		2.751299519		1.994474056
F		0.373885158		-0.364689111		2.053900998
F		-4.270372857		0.212547681		-0.587875988
F		0.760933734		1.249199598		-3.246528134
