12
-186.56215295
Al		-0.364671788		1.03295937		-1.829605479
Al		-0.466138836		1.070865526		1.307699059
Al		-3.012813537		0.460124629		-1.856973054
F		-3.528744918		0.315532931		-3.591893116
F		-1.396030374		-0.579643064		-1.843222676
F		-1.969602467		2.074325742		-1.893840531
F		-2.040278395		0.714328811		0.451112962
F		0.626176476		1.276189784		-0.304378372
F		-0.299466286		2.751674101		1.994585634
F		0.374102818		-0.364996983		2.05402559
F		-4.270176829		0.212585895		-0.588093658
F		0.761362076		1.249284764		-3.246916506
