12
-186.56215295
Al		-0.364739338		1.03292458		-1.830664082
Al		-0.468046791		1.070505061		1.310419077
Al		-3.012070851		0.4602888		-1.856780799
F		-3.528435441		0.315615426		-3.591074571
F		-1.39799771		-0.581472024		-1.843320774
F		-1.972148521		2.075174555		-1.893989701
F		-2.040907373		0.714183687		0.450631075
F		0.629285736		1.276842611		-0.305382109
F		-0.299220691		2.752985138		1.994976157
F		0.374864628		-0.366074535		2.054461662
F		-4.269490731		0.212719644		-0.588855503
F		0.762861273		1.249582845		-3.248275808
