12
-186.56215295
Al		-0.364748988		1.03291961		-1.830815311
Al		-0.468319356		1.070453566		1.310807651
Al		-3.011964753		0.460312253		-1.856753334
F		-3.52839123		0.315627211		-3.590957636
F		-1.398278758		-0.581733304		-1.843334788
F		-1.972512243		2.075295814		-1.894011011
F		-2.040997227		0.714162955		0.450562234
F		0.629729916		1.276935872		-0.3055255
F		-0.299185606		2.753172429		1.995031946
F		0.374973458		-0.366228471		2.054523958
F		-4.269392717		0.212738751		-0.588964338
F		0.763075444		1.249625428		-3.248469994
