12
-186.56215295
Al		-0.364758638		1.03291464		-1.83096654
Al		-0.468591921		1.070402071		1.311196225
Al		-3.011858655		0.460335706		-1.856725869
F		-3.528347019		0.315638996		-3.590840701
F		-1.398559806		-0.581994584		-1.843348802
F		-1.972875965		2.075417073		-1.894032321
F		-2.041087081		0.714142223		0.450493393
F		0.630174096		1.277029133		-0.305668891
F		-0.299150521		2.75335972		1.995087735
F		0.375082288		-0.366382407		2.054586254
F		-4.269294703		0.212757858		-0.589073173
F		0.763289615		1.249668011		-3.24866418
