12
-186.56215295
Al		-0.364768288		1.03290967		-1.831117769
Al		-0.468864486		1.070350576		1.311584799
Al		-3.011752557		0.460359159		-1.856698404
F		-3.528302808		0.315650781		-3.590723766
F		-1.398840854		-0.582255864		-1.843362816
F		-1.973239687		2.075538332		-1.894053631
F		-2.041176935		0.714121491		0.450424552
F		0.630618276		1.277122394		-0.305812282
F		-0.299115436		2.753547011		1.995143524
F		0.375191118		-0.366536343		2.05464855
F		-4.269196689		0.212776965		-0.589182008
F		0.763503786		1.249710594		-3.248858366
