12
-186.56215295
Al		-0.364787588		1.03289973		-1.831420227
Al		-0.469409616		1.070247586		1.312361947
Al		-3.011540361		0.460406065		-1.856643474
F		-3.528214386		0.315674351		-3.590489896
F		-1.39940295		-0.582778424		-1.843390844
F		-1.973967131		2.07578085		-1.894096251
F		-2.041356643		0.714080027		0.45028687
F		0.631506636		1.277308916		-0.306099064
F		-0.299045266		2.753921593		1.995255102
F		0.375408778		-0.366844215		2.054773142
F		-4.269000661		0.212815179		-0.589399678
F		0.763932128		1.24979576		-3.249246738
