12
-186.56215295
Al		-0.364102438		1.0332526		-1.820682968
Al		-0.450057501		1.073903731		1.284773193
Al		-3.019073319		0.458740902		-1.858593489
F		-3.531353367		0.314837616		-3.598792281
F		-1.379448542		-0.564227544		-1.84239585
F		-1.948142869		2.067171461		-1.892583241
F		-2.034977009		0.715551999		0.455174581
F		0.599969856		1.270687385		-0.295918303
F		-0.301536301		2.740623932		1.991294083
F		0.367681848		-0.355914759		2.050350126
F		-4.275959655		0.211458582		-0.581672393
F		0.748725987		1.246772367		-3.235459532
