12
-186.56215295
Al		-0.364816538		1.03288482		-1.831873914
Al		-0.470227311		1.070093101		1.313527669
Al		-3.011222067		0.460476424		-1.856561079
F		-3.528081753		0.315709706		-3.590139091
F		-1.400246094		-0.583562264		-1.843432886
F		-1.975058297		2.076144627		-1.894160181
F		-2.041626205		0.714017831		0.450080347
F		0.632839176		1.277588699		-0.306529237
F		-0.298940011		2.754483466		1.995422469
F		0.375735268		-0.367306023		2.05496003
F		-4.268706619		0.2128725		-0.589726183
F		0.764574641		1.249923509		-3.249829296
