12
-186.56215295
Al		-0.364826188		1.03287985		-1.832025143
Al		-0.470499876		1.070041606		1.313916243
Al		-3.011115969		0.460499877		-1.856533614
F		-3.528037542		0.315721491		-3.590022156
F		-1.400527142		-0.583823544		-1.8434469
F		-1.975422019		2.076265886		-1.894181491
F		-2.041716059		0.713997099		0.450011506
F		0.633283356		1.27768196		-0.306672628
F		-0.298904926		2.754670757		1.995478258
F		0.375844098		-0.367459959		2.055022326
F		-4.268608605		0.212891607		-0.589835018
F		0.764788812		1.249966092		-3.250023482
