12
-186.56215295
Al		-0.364835838		1.03287488		-1.832176372
Al		-0.470772441		1.069990111		1.314304817
Al		-3.011009871		0.46052333		-1.856506149
F		-3.527993331		0.315733276		-3.589905221
F		-1.40080819		-0.584084824		-1.843460914
F		-1.975785741		2.076387145		-1.894202801
F		-2.041805913		0.713976367		0.449942665
F		0.633727536		1.277775221		-0.306816019
F		-0.298869841		2.754858048		1.995534047
F		0.375952928		-0.367613895		2.055084622
F		-4.268510591		0.212910714		-0.589943853
F		0.765002983		1.250008675		-3.250217668
