12
-186.56215295
Al		-0.364112088		1.03324763		-1.820834197
Al		-0.450330066		1.073852236		1.285161767
Al		-3.018967221		0.458764355		-1.858566024
F		-3.531309156		0.314849401		-3.598675346
F		-1.37972959		-0.564488824		-1.842409864
F		-1.948506591		2.06729272		-1.892604551
F		-2.035066863		0.715531267		0.45510574
F		0.600414036		1.270780646		-0.296061694
F		-0.301501216		2.740811223		1.991349872
F		0.367790678		-0.356068695		2.050412422
F		-4.275861641		0.211477689		-0.581781228
F		0.748940158		1.24681495		-3.235653718
