12
-186.56215295
Al		-0.364903388		1.03284009		-1.833234975
Al		-0.472680396		1.069629646		1.317024835
Al		-3.010267185		0.460687501		-1.856313894
F		-3.527683854		0.315815771		-3.589086676
F		-1.402775526		-0.585913784		-1.843559012
F		-1.978331795		2.077235958		-1.894351971
F		-2.042434891		0.713831243		0.449460778
F		0.636836796		1.278428048		-0.307819756
F		-0.298624246		2.756169085		1.99592457
F		0.376714738		-0.368691447		2.055520694
F		-4.267824493		0.213044463		-0.590705698
F		0.76650218		1.250306756		-3.25157697
