12
-186.56215295
Al		-0.364951638		1.03281524		-1.83399112
Al		-0.474043221		1.069372171		1.318967705
Al		-3.009736695		0.460804766		-1.856176569
F		-3.527462799		0.315874696		-3.588502001
F		-1.404180766		-0.587220184		-1.843629082
F		-1.980150405		2.077842253		-1.894458521
F		-2.042884161		0.713727583		0.449116573
F		0.639057696		1.278894353		-0.308536711
F		-0.298448821		2.75710554		1.996203515
F		0.377258888		-0.369461127		2.055832174
F		-4.267334423		0.213139998		-0.591249873
F		0.767573035		1.250519671		-3.2525479
