12
Properties=species:S:1:pos:R:3:forces:R:3 energy=-186.55869955 pbc="F F F"
Al    -0.340917538    0.9594276599999999    -1.834869136    0.003296    0.082721    -0.020489
Al    -0.46347481399999996    1.121493453    1.288522536    -0.01671    0.056057    -0.045457
Al    -3.016639919    0.462248889    -1.8531205419999999    0.008536    -0.043777    0.041431
F    -3.5644276610000003    0.525644008    -3.6188392080000003    -0.014105    -0.007721    -0.048657
F    -1.3935695570000002    -0.6062473009999999    -1.963053945    -0.032226    -0.055    -0.000536
F    -1.904490987    2.059899003    -1.775100583    0.041808    0.023083    -0.006395
F    -2.010474725    0.446979839    0.467639524    -0.062643    -0.006535    -0.029307
F    0.6073793270000001    1.157369243    -0.29588701100000003    0.004075    -0.001307    -0.004251
F    -0.527307075    2.950766297    1.7488627469999998    0.018732    0.090889    0.055059
F    0.520490015    -0.128012958    2.323266045    0.062234    -0.137383    0.05422
F    -4.261441992    0.04762477000000001    -0.587255065    -0.016218    0.003207    0.008004
F    0.764261627    1.220019837    -3.243720129    0.003221    -0.004234    -0.003624
