12
Properties=species:S:1:pos:R:3:forces:R:3 energy=-185.36247719 pbc="F F F"
Al    0.24571377200000002    -2.2328662109999997    -1.8803206609999998    0.281238    0.293791    0.053815
Al    2.03401933    -0.7423162560000001    -0.595852024    -0.504704    0.68033    0.440208
Al    -0.253641406    0.40565150299999997    -1.943034083    0.971265    0.555998    -0.109028
F    3.671162688    -0.671671816    0.200416777    -0.077824    -0.027941    0.154237
F    -0.059442774000000004    -3.9100464930000003    -2.595371036    0.006404    0.001431    -0.018225
F    1.854616238    -1.226263076    -2.4010243890000003    -0.073464    0.181028    -0.657388
F    1.4647024949999998    0.977330139    -2.18984802    -0.329048    -0.352488    -0.000978
F    -1.633225022    1.611747331    -2.089664111    0.061931    0.007178    -0.145459
F    -0.894142486    -1.114165852    -0.800523569    -0.081621    -0.157742    0.832601
F    -0.43121837399999996    -1.027433709    -3.3331915810000003    -0.502365    -0.261422    -0.721588
F    0.658754796    0.25712019799999997    0.068661998    0.08831    -0.309611    -0.180635
F    1.233114134    -2.56474761    -0.19013257299999997    0.159878    -0.610555    0.352439
