      12
SCF Done            -185.36247719
Al            0.283089772        -2.326134211        -1.843525661
Al            1.960760330        -0.559595256        -0.647204024
Al           -0.268800406         0.325851503        -1.945905083
F             3.534131688        -0.202969816         0.165591777
F            -0.157528774        -4.029810493        -2.249731036
F             1.927507238        -1.556942076        -2.410129389
F             1.537741495         0.616939139        -2.273384020
F            -1.401554022         1.672902331        -2.352497111
F            -0.855305486        -1.203519852        -0.774910569
F            -0.464314374        -1.102864709        -3.309174581
F             0.501644796         0.438347198        -0.045856002
F             1.302824134        -2.311715610        -0.059816573
