12
Properties=species:S:1:pos:R:3:forces:R:3 energy=-186.32919090 pbc="F F F"
Al    -0.067153857    1.727503796    2.0358919209999997    0.359434    0.612022    -0.612148
Al    2.5520036960000003    2.558151825    1.8472961749999999    -0.097749    -0.114702    -0.095573
Al    1.316026058    2.562351981    -0.600075653    0.013021    0.035886    -0.081883
F    1.193466552    2.773260119    3.243913032    -0.046229    0.012474    0.077314
F    -1.328013947    3.109379943    1.856234695    -0.283326    0.262795    -0.14111
F    -0.63106806    0.146981582    2.93346606    -0.186117    -0.837057    0.667858
F    1.6931637689999999    0.864216985    1.5250024340000001    0.108568    -0.017164    -0.092705
F    3.112996142    2.122941472    -0.12210245399999999    0.092286    -0.012456    -0.053404
F    1.167572514    3.1974421520000003    -2.310900204    -0.003503    -0.000551    0.021369
F    1.3191246680000002    3.8075535869999997    0.9012930650000001    -0.015569    0.069434    0.054587
F    4.178191366    3.0067088109999998    2.486851368    0.10703    0.040208    0.064484
F    -0.058725    1.5011025679999999    0.01025590500000001    -0.047846    -0.050888    0.191208
