      12
SCF Done            -167.72440787
Al           -0.390615438         1.156327760        -1.821819736
Al           -0.443305581         1.053163291         1.282068401
Al           -3.009407103         0.409899878        -1.857885609
F            -3.525710655         0.286996336        -3.599198561
F            -1.311148558        -0.502710304        -1.972313938
F            -2.030946693         2.097755989        -1.764117761
F            -1.987909377         0.501256855         0.459815509
F             0.533851416         1.559436497        -0.300292375
F            -0.082988581         2.753925804         1.871514371
F             0.160455608        -0.427199871         2.170286158
F            -4.281952367         0.235408326        -0.581261313
F             0.783337819         1.078347703        -3.230700844
