12
Properties=species:S:1:pos:R:3:forces:R:3 energy=-184.67166111 pbc="F F F"
Al    0.281475772    -2.305130611    -1.821730261    0.05791    0.223088    0.052684
Al    2.01331893    -0.5458000559999999    -0.8178804239999999    -0.20819    -0.047252    -0.101563
Al    -0.319746806    0.291051703    -1.797024883    0.150286    -0.175828    0.048881
F    3.5997184879999997    -0.185786416    -0.043983023    -0.044496    -0.010098    -0.021707
F    -0.159767774    -4.0049430930000005    -2.223141636    0.012373    0.047666    0.011256
F    1.8064524380000002    -1.333741476    -2.617560389    -0.525415    1.068658    -0.966461
F    1.4736440949999998    0.103380939    -2.60388402    -0.006254    -1.173184    -0.987792
F    -1.464902422    1.630851531    -2.169509911    0.032118    -0.037577    0.010448
F    -0.698372686    -1.1765122520000002    -0.529983569    0.850851    0.185024    1.262519
F    0.514979226    -0.8705003090000001    -3.159567981    1.489219    0.346024    -0.120957
F    0.260293196    -0.202629402    0.025700797999999997    -0.64462    -1.33418    0.395678
F    0.5931015340000001    -1.63975341    0.012025027    -1.163782    0.907659    0.417014
