12
-186.39349496
Al		-0.012084157		1.580264596		2.210127021
Al		2.543203596		2.514290525		1.650371075
Al		1.257272158		2.797122581		-0.681597153
F		1.076283852		3.079331519		2.739594332
F		-1.424009947		2.771334543		2.219971095
F		-0.60366296		-0.041925218		2.79000526
F		1.848158869		0.771297585		2.009948734
F		2.873314342		1.899378372		-0.111696954
F		1.147289214		3.012422952		-2.479911804
F		1.735389868		4.083523087		0.608112265
F		3.948757466		3.193926111		2.649615168
F		0.0600646		1.708260868		0.222557505
