12
-186.39349496
Al		-0.156858457		1.713379996		2.089370121
Al		2.503947896		2.718552825		1.904142175
Al		1.479651458		2.505274981		-0.605566253
F		0.911155152		3.109372519		2.950650232
F		-1.763487547		2.580825543		2.123897095
F		-0.36044966		-0.007757018		2.70803546
F		1.762905569		0.984688785		1.842932434
F		3.075192942		1.806031272		-0.026058654
F		1.015976714		3.061676552		-2.294372604
F		1.762636868		3.932918787		0.662982465
F		4.305380766		3.043317411		2.231826368
F		-0.093425		1.912219568		0.199197905
