12
-186.39349496
Al		-0.104213257		1.664974396		2.133281721
Al		2.518222696		2.644275625		1.811861775
Al		1.398786258		2.611401381		-0.633213853
F		0.971201952		3.098448519		2.873902632
F		-1.640041147		2.650101543		2.158833095
F		-0.44889086		-0.020181818		2.73784266
F		1.793906769		0.907091985		1.903665634
F		3.001782542		1.839975672		-0.057199854
F		1.063726714		3.043766152		-2.361841404
F		1.752728868		3.987683987		0.643029665
F		4.175699566		3.098084211		2.383749568
F		-0.0376106		1.838052768		0.207692305
