12
-186.39349496
Al		-0.038406757		1.604467396		2.188171221
Al		2.536066196		2.551429125		1.696511275
Al		1.297704758		2.744059381		-0.667773353
F		1.046260452		3.084793519		2.777968132
F		-1.485733147		2.736696543		2.202503095
F		-0.55944236		-0.035712818		2.77510166
F		1.832658269		0.810095985		1.979582134
F		2.910019542		1.882406172		-0.096126354
F		1.123414214		3.021378152		-2.446177404
F		1.740343868		4.056140487		0.618088665
F		4.013598066		3.166542711		2.573653568
F		0.0321574		1.745344268		0.218310305
