12
-186.39349496
Al		0.001077187		1.568163172		2.22110502
Al		2.546772296		2.495721225		1.627300975
Al		1.237055884		2.823654184		-0.688509054
F		1.091295578		3.076600536		2.720407463
F		-1.393148283		2.788653522		2.228705186
F		-0.625773271		-0.045031466		2.79745703
F		1.855909153		0.751898393		2.025132065
F		2.854961745		1.907864453		-0.119482216
F		1.159226809		3.007945333		-2.496779012
F		1.732912894		4.097214387		0.603124067
F		3.916337168		3.207617777		2.68759598
F		0.074018209		1.68971921		0.224681093
