12
-186.39349496
Al		0.040561043		1.531858996		2.254038621
Al		2.557478396		2.440013325		1.558090675
Al		1.176406958		2.903248981		-0.709244753
F		1.136330652		3.068407519		2.662846732
F		-1.300563547		2.840610543		2.254907095
F		-0.69210416		-0.054350018		2.81981246
F		1.879160069		0.693700785		2.070681934
F		2.799903942		1.933322772		-0.142838154
F		1.195039214		2.994512552		-2.547380604
F		1.725481868		4.138288287		0.588159465
F		3.819076266		3.248692911		2.801538368
F		0.115879		1.634094068		0.231051905
