12
-186.39349496
Al		0.053722387		1.519757572		2.26501662
Al		2.561047096		2.421444025		1.535020575
Al		1.156190684		2.929780584		-0.716156654
F		1.151342378		3.065676536		2.643659863
F		-1.269701883		2.857929522		2.263641186
F		-0.714214471		-0.057456266		2.82726423
F		1.886910353		0.674301593		2.085865265
F		2.781551345		1.941808853		-0.150623416
F		1.206976809		2.990034933		-2.564247812
F		1.723004894		4.151979587		0.583171267
F		3.786655968		3.262384577		2.83951918
F		0.129832609		1.61555241		0.233175493
12
-186.39349496
Al		0.027399787		1.543960372		2.24306082
Al		2.553909696		2.458582625		1.581160775
Al		1.196623284		2.876717384		-0.702332854
F		1.121318978		3.071138536		2.682033663
F		-1.331425083		2.823291522		2.246173186
F		-0.669993871		-0.051243866		2.81236063
F		1.871409753		0.713099993		2.055498665
F		2.818256545		1.924836653		-0.135052816
F		1.183101809		2.998990133		-2.530513412
F		1.727958894		4.124596987		0.593147667
F		3.851496568		3.235001177		2.76355758
F		0.101925409		1.65263581		0.228928293
12
-186.39349496
Al		0.001077187		1.568163172		2.22110502
Al		2.546772296		2.495721225		1.627300975
Al		1.237055884		2.823654184		-0.688509054
F		1.091295578		3.076600536		2.720407463
F		-1.393148283		2.788653522		2.228705186
F		-0.625773271		-0.045031466		2.79745703
F		1.855909153		0.751898393		2.025132065
F		2.854961745		1.907864453		-0.119482216
F		1.159226809		3.007945333		-2.496779012
F		1.732912894		4.097214387		0.603124067
F		3.916337168		3.207617777		2.68759598
F		0.074018209		1.68971921		0.224681093
12
-186.39349496
Al		-0.025245413		1.592365972		2.19914922
Al		2.539634896		2.532859825		1.673441175
Al		1.277488484		2.770590984		-0.674685254
F		1.061272178		3.082062536		2.758781263
F		-1.454871483		2.754015522		2.211237186
F		-0.581552671		-0.038819066		2.78255343
F		1.840408553		0.790696793		1.994765465
F		2.891666945		1.890892253		-0.103911616
F		1.135351809		3.016900533		-2.463044612
F		1.737866894		4.069831787		0.613100467
F		3.981177768		3.180234377		2.61163438
F		0.046111009		1.72680261		0.220433893
12
-186.39349496
Al		-0.051568013		1.616568772		2.17719342
Al		2.532497496		2.569998425		1.719581375
Al		1.317921084		2.717527784		-0.660861454
F		1.031248778		3.087524536		2.797155063
F		-1.516594683		2.719377522		2.193769186
F		-0.537332071		-0.032606666		2.76764983
F		1.824907953		0.829495193		1.964398865
F		2.928372145		1.873920053		-0.088341016
F		1.111476809		3.025855733		-2.429310212
F		1.742820894		4.042449187		0.623076867
F		4.046018368		3.152850977		2.53567278
F		0.018203809		1.76388601		0.216186693
12
-186.39349496
Al		-0.077890613		1.640771572		2.15523762
Al		2.525360096		2.607137025		1.765721575
Al		1.358353684		2.664464584		-0.647037654
F		1.001225378		3.092986536		2.835528863
F		-1.578317883		2.684739522		2.176301186
F		-0.493111471		-0.026394266		2.75274623
F		1.809407353		0.868293593		1.934032265
F		2.965077345		1.856947853		-0.072770416
F		1.087601809		3.034810933		-2.395575812
F		1.747774894		4.015066587		0.633053267
F		4.110858968		3.125467577		2.45971118
F		-0.009703391		1.80096941		0.211939493
12
-186.39349496
Al		-0.104213213		1.664974372		2.13328182
Al		2.518222696		2.644275625		1.811861775
Al		1.398786284		2.611401384		-0.633213854
F		0.971201978		3.098448536		2.873902663
F		-1.640041083		2.650101522		2.158833186
F		-0.448890871		-0.020181866		2.73784263
F		1.793906753		0.907091993		1.903665665
F		3.001782545		1.839975653		-0.057199816
F		1.063726809		3.043766133		-2.361841412
F		1.752728894		3.987683987		0.643029667
F		4.175699568		3.098084177		2.38374958
F		-0.037610591		1.83805281		0.207692293
12
-186.39349496
Al		-0.130535813		1.689177172		2.11132602
Al		2.511085296		2.681414225		1.858001975
Al		1.439218884		2.558338184		-0.619390054
F		0.941178578		3.103910536		2.912276463
F		-1.701764283		2.615463522		2.141365186
F		-0.404670271		-0.013969466		2.72293903
F		1.778406153		0.945890393		1.873299065
F		3.038487745		1.823003453		-0.041629216
F		1.039851809		3.052721333		-2.328107012
F		1.757682894		3.960301387		0.653006067
F		4.240540168		3.070700777		2.30778798
F		-0.065517791		1.87513621		0.203445093
12
-186.39349496
Al		-0.156858413		1.713379972		2.08937022
Al		2.503947896		2.718552825		1.904142175
Al		1.479651484		2.505274984		-0.605566254
F		0.911155178		3.109372536		2.950650263
F		-1.763487483		2.580825522		2.123897186
F		-0.360449671		-0.007757066		2.70803543
F		1.762905553		0.984688793		1.842932465
F		3.075192945		1.806031253		-0.026058616
F		1.015976809		3.061676533		-2.294372612
F		1.762636894		3.932918787		0.662982467
F		4.305380768		3.043317377		2.23182638
F		-0.093424991		1.91221961		0.199197893
12
-186.39349496
Al		-0.183181013		1.737582772		2.06741442
Al		2.496810496		2.755691425		1.950282375
Al		1.520084084		2.452211784		-0.591742454
F		0.881131778		3.114834536		2.989024063
F		-1.825210683		2.546187522		2.106429186
F		-0.316229071		-0.001544666		2.69313183
F		1.747404953		1.023487193		1.812565865
F		3.111898145		1.789059053		-0.010488016
F		0.992101809		3.070631733		-2.260638212
F		1.767590894		3.905536187		0.672958867
F		4.370221368		3.015933977		2.15586478
F		-0.121332191		1.94930301		0.194950693
