12
-187.24475565
Al		0.349859201		-0.599312098		1.740447516
Al		2.350323597		-1.788844793		-0.519784113
Al		-0.893154072		-1.830302566		-0.991690903
F		3.47620355		-0.496324264		-1.112462993
F		-1.834511523		-0.56454013		-1.886756875
F		2.736990697		-3.562356063		-0.491657824
F		-1.226102063		-3.613220191		-1.069377164
F		1.896818758		-1.414866023		1.210544837
F		0.831534246		-1.508496426		-1.489313861
F		0.108750104		-1.172363517		3.443244732
F		0.40632722		1.135156901		1.198597138
F		-0.961069287		-1.451793123		0.79478447
