12
-187.24475565
Al		0.353107285		-0.599270378		1.740920702
Al		2.347806873		-1.790257939		-0.524412835
Al		-0.896921332		-1.82897013		-0.987977641
F		3.476831296		-0.496232858		-1.108036053
F		-1.832644931		-0.564599504		-1.890820431
F		2.739137037		-3.562557467		-0.488763072
F		-1.223224923		-3.612954275		-1.071540094
F		1.898201426		-1.413279697		1.206672955
F		0.827671394		-1.508546042		-1.489876605
F		0.106487046		-1.172392581		3.442915046
F		0.406910194		1.135164391		1.198682062
F		-0.960809139		-1.453358351		0.798895682
