12
-187.24475565
Al		0.354267315		-0.599255478		1.741089697
Al		2.346908043		-1.790762634		-0.52606595
Al		-0.898266782		-1.82849426		-0.986651476
F		3.477055491		-0.496200213		-1.106455003
F		-1.831978291		-0.564620709		-1.892271701
F		2.739903587		-3.562629397		-0.487729232
F		-1.222197373		-3.612859305		-1.072312569
F		1.898695236		-1.412713152		1.20529014
F		0.826291804		-1.508563762		-1.490077585
F		0.105678811		-1.172402961		3.442797301
F		0.407118399		1.135167066		1.198712392
F		-0.960716229		-1.453917361		0.800363972
