12
-187.24475565
Al		0.354731327		-0.599249518		1.741157295
Al		2.346548511		-1.790964512		-0.526727196
Al		-0.898804962		-1.828303912		-0.98612101
F		3.477145169		-0.496187155		-1.105822583
F		-1.831711635		-0.564629191		-1.892852209
F		2.740210207		-3.562658169		-0.487315696
F		-1.221786353		-3.612821317		-1.072621559
F		1.89889276		-1.412486534		1.204737014
F		0.825739968		-1.50857085		-1.490157977
F		0.105355517		-1.172407113		3.442750203
F		0.407201681		1.135168136		1.198724524
F		-0.960679065		-1.454140965		0.800951288
