12
-187.24475565
Al		0.354963333		-0.599246538		1.741191094
Al		2.346368745		-1.791065451		-0.527057819
Al		-0.899074052		-1.828208738		-0.985855777
F		3.477190008		-0.496180626		-1.105506373
F		-1.831578307		-0.564633432		-1.893142463
F		2.740363517		-3.562672555		-0.487108928
F		-1.221580843		-3.612802323		-1.072776054
F		1.898991522		-1.412373225		1.204460451
F		0.82546405		-1.508574394		-1.490198173
F		0.10519387		-1.172409189		3.442726654
F		0.407243322		1.135168671		1.19873059
F		-0.960660483		-1.454252767		0.801244946
