12
-187.24475565
Al		0.355891357		-0.599234618		1.74132629
Al		2.345649681		-1.791469207		-0.528380311
Al		-0.900150412		-1.827828042		-0.984794845
F		3.477369364		-0.49615451		-1.104241533
F		-1.831044995		-0.564650396		-1.894303479
F		2.740976757		-3.562730099		-0.486281856
F		-1.220758803		-3.612726347		-1.073394034
F		1.89938657		-1.411919989		1.203354199
F		0.824360378		-1.50858857		-1.490358957
F		0.104547282		-1.172417493		3.442632458
F		0.407409886		1.135170811		1.198754854
F		-0.960586155		-1.454699975		0.802419578
