12
-187.24475565
Al		0.356355369		-0.599228658		1.741393888
Al		2.345290149		-1.791671085		-0.529041557
Al		-0.900688592		-1.827637694		-0.984264379
F		3.477459042		-0.496141452		-1.103609113
F		-1.830778339		-0.564658878		-1.894883987
F		2.741283377		-3.562758871		-0.48586832
F		-1.220347783		-3.612688359		-1.073703024
F		1.899584094		-1.411693371		1.202801073
F		0.823808542		-1.508595658		-1.490439349
F		0.104223988		-1.172421645		3.44258536
F		0.407493168		1.135171881		1.198766986
F		-0.960548991		-1.454923579		0.803006894
