12
-187.24475565
Al		0.356587375		-0.599225678		1.741427687
Al		2.345110383		-1.791772024		-0.52937218
Al		-0.900957682		-1.82754252		-0.983999146
F		3.477503881		-0.496134923		-1.103292903
F		-1.830645011		-0.564663119		-1.895174241
F		2.741436687		-3.562773257		-0.485661552
F		-1.220142273		-3.612669365		-1.073857519
F		1.899682856		-1.411580062		1.20252451
F		0.823532624		-1.508599202		-1.490479545
F		0.104062341		-1.172423721		3.442561811
F		0.407534809		1.135172416		1.198773052
F		-0.960530409		-1.455035381		0.803300552
