12
-187.24475565
Al		0.357979411		-0.599207798		1.741630481
Al		2.344031787		-1.792377658		-0.531355918
Al		-0.902572222		-1.826971476		-0.982407748
F		3.477772915		-0.496095749		-1.101395643
F		-1.829845043		-0.564688565		-1.896915765
F		2.742356547		-3.562859573		-0.484420944
F		-1.218909213		-3.612555401		-1.074784489
F		1.900275428		-1.410900208		1.200865132
F		0.821877116		-1.508620466		-1.490720721
F		0.103092459		-1.172436177		3.442420517
F		0.407784655		1.135175626		1.198809448
F		-0.960418917		-1.455706193		0.8050625
