12
-187.24475565
Al		0.359835459		-0.599183958		1.741900873
Al		2.342593659		-1.79318517		-0.534000902
Al		-0.904724942		-1.826210084		-0.980285884
F		3.478131627		-0.496043517		-1.098865963
F		-1.828778419		-0.564722493		-1.899237797
F		2.743583027		-3.562974661		-0.4827668
F		-1.217265133		-3.612403449		-1.076020449
F		1.901065524		-1.409993736		1.198652628
F		0.819669772		-1.508648818		-1.491042289
F		0.101799283		-1.172452785		3.442232125
F		0.408117783		1.135179906		1.198857976
F		-0.960270261		-1.456600609		0.807411764
