12
-187.24475565
Al		0.360299471		-0.599177998		1.741968471
Al		2.342234127		-1.793387048		-0.534662148
Al		-0.905263122		-1.826019736		-0.979755418
F		3.478221305		-0.496030459		-1.098233543
F		-1.828511763		-0.564730975		-1.899818305
F		2.743889647		-3.563003433		-0.482353264
F		-1.216854113		-3.612365461		-1.076329439
F		1.901263048		-1.409767118		1.198099502
F		0.819117936		-1.508655906		-1.491122681
F		0.101475989		-1.172456937		3.442185027
F		0.408201065		1.135180976		1.198870108
F		-0.960233097		-1.456824213		0.80799908
