12
-187.24475565
Al		0.350787225		-0.599300178		1.740582712
Al		2.349604533		-1.789248549		-0.521106605
Al		-0.894230432		-1.82992187		-0.990629971
F		3.476382906		-0.496298148		-1.111198153
F		-1.833978211		-0.564557094		-1.887917891
F		2.737603937		-3.562413607		-0.490830752
F		-1.225280023		-3.613144215		-1.069995144
F		1.897213806		-1.414412787		1.209438585
F		0.830430574		-1.508510602		-1.489474645
F		0.108103516		-1.172371821		3.443150536
F		0.406493784		1.135159041		1.198621402
F		-0.960994959		-1.452240331		0.795959102
