12
-187.24475565
Al		0.361227495		-0.599166078		1.742103667
Al		2.341515063		-1.793790804		-0.53598464
Al		-0.906339482		-1.82563904		-0.978694486
F		3.478400661		-0.496004343		-1.096968703
F		-1.827978451		-0.564747939		-1.900979321
F		2.744502887		-3.563060977		-0.481526192
F		-1.216032073		-3.612289485		-1.076947419
F		1.901658096		-1.409313882		1.19699325
F		0.818014264		-1.508670082		-1.491283465
F		0.100829401		-1.172465241		3.442090831
F		0.408367629		1.135183116		1.198894372
F		-0.960158769		-1.457271421		0.809173712
