12
-187.24475565
Al		0.362155519		-0.599154158		1.742238863
Al		2.340795999		-1.79419456		-0.537307132
Al		-0.907415842		-1.825258344		-0.977633554
F		3.478580017		-0.495978227		-1.095703863
F		-1.827445139		-0.564764903		-1.902140337
F		2.745116127		-3.563118521		-0.48069912
F		-1.215210033		-3.612213509		-1.077565399
F		1.902053144		-1.408860646		1.195886998
F		0.816910592		-1.508684258		-1.491444249
F		0.100182813		-1.172473545		3.441996635
F		0.408534193		1.135185256		1.198918636
F		-0.960084441		-1.457718629		0.810348344
