12
-187.24475565
Al		0.362387525		-0.599151178		1.742272662
Al		2.340616233		-1.794295499		-0.537637755
Al		-0.907684932		-1.82516317		-0.977368321
F		3.478624856		-0.495971698		-1.095387653
F		-1.827311811		-0.564769144		-1.902430591
F		2.745269437		-3.563132907		-0.480492352
F		-1.215004523		-3.612194515		-1.077719894
F		1.902151906		-1.408747337		1.195610435
F		0.816634674		-1.508687802		-1.491484445
F		0.100021166		-1.172475621		3.441973086
F		0.408575834		1.135185791		1.198924702
F		-0.960065859		-1.457830431		0.810642002
