12
-187.24475565
Al		0.364707585		-0.599121378		1.742610652
Al		2.338818573		-1.795304889		-0.540943985
Al		-0.910375832		-1.82421143		-0.974715991
F		3.479073246		-0.495906408		-1.092225553
F		-1.825978531		-0.564811554		-1.905333131
F		2.746802537		-3.563276767		-0.478424672
F		-1.212949423		-3.612004575		-1.079264844
F		1.903139526		-1.407614247		1.192844805
F		0.813875494		-1.508723242		-1.491886405
F		0.098404696		-1.172496381		3.441737596
F		0.408992244		1.135191141		1.198985362
F		-0.959880039		-1.458948451		0.813578582
