12
-187.24475565
Al		0.365403603		-0.599112438		1.742712049
Al		2.338279275		-1.795607706		-0.541935854
Al		-0.911183102		-1.823925908		-0.973920292
F		3.479207763		-0.495886821		-1.091276923
F		-1.825578547		-0.564824277		-1.906203893
F		2.747262467		-3.563319925		-0.477804368
F		-1.212332893		-3.611947593		-1.079728329
F		1.903435812		-1.40727432		1.192015116
F		0.81304774		-1.508733874		-1.492006993
F		0.097919755		-1.172502609		3.441666949
F		0.409117167		1.135192746		1.19900356
F		-0.959824293		-1.459283857		0.814459556
