12
-187.24475565
Al		0.365867615		-0.599106478		1.742779647
Al		2.337919743		-1.795809584		-0.5425971
Al		-0.911721282		-1.82373556		-0.973389826
F		3.479297441		-0.495873763		-1.090644503
F		-1.825311891		-0.564832759		-1.906784401
F		2.747569087		-3.563348697		-0.477390832
F		-1.211921873		-3.611909605		-1.080037319
F		1.903633336		-1.407047702		1.19146199
F		0.812495904		-1.508740962		-1.492087385
F		0.097596461		-1.172506761		3.441619851
F		0.409200449		1.135193816		1.199015692
F		-0.959787129		-1.459507461		0.815046872
