12
-187.24475565
Al		0.367027645		-0.599091578		1.742948642
Al		2.337020913		-1.796314279		-0.544250215
Al		-0.913066732		-1.82325969		-0.972063661
F		3.479521636		-0.495841118		-1.089063453
F		-1.824645251		-0.564853964		-1.908235671
F		2.748335637		-3.563420627		-0.476356992
F		-1.210894323		-3.611814635		-1.080809794
F		1.904127146		-1.406481157		1.190079175
F		0.811116314		-1.508758682		-1.492288365
F		0.096788226		-1.172517141		3.441502106
F		0.409408654		1.135196491		1.199046022
F		-0.959694219		-1.460066471		0.816515162
