12
-187.24475565
Al		0.367723663		-0.599082638		1.743050039
Al		2.336481615		-1.796617096		-0.545242084
Al		-0.913874002		-1.822974168		-0.971267962
F		3.479656153		-0.495821531		-1.088114823
F		-1.824245267		-0.564866687		-1.909106433
F		2.748795567		-3.563463785		-0.475736688
F		-1.210277793		-3.611757653		-1.081273279
F		1.904423432		-1.40614123		1.189249486
F		0.81028856		-1.508769314		-1.492408953
F		0.096303285		-1.172523369		3.441431459
F		0.409533577		1.135198096		1.19906422
F		-0.959638473		-1.460401877		0.817396136
