12
-187.24475565
Al		0.367955669		-0.599079658		1.743083838
Al		2.336301849		-1.796718035		-0.545572707
Al		-0.914143092		-1.822878994		-0.971002729
F		3.479700992		-0.495815002		-1.087798613
F		-1.824111939		-0.564870928		-1.909396687
F		2.748948877		-3.563478171		-0.47552992
F		-1.210072283		-3.611738659		-1.081427774
F		1.904522194		-1.406027921		1.188972923
F		0.810012642		-1.508772858		-1.492449149
F		0.096141638		-1.172525445		3.44140791
F		0.409575218		1.135198631		1.199070286
F		-0.959619891		-1.460513679		0.817689794
