12
-187.24475565
Al		0.368187675		-0.599076678		1.743117637
Al		2.336122083		-1.796818974		-0.54590333
Al		-0.914412182		-1.82278382		-0.970737496
F		3.479745831		-0.495808473		-1.087482403
F		-1.823978611		-0.564875169		-1.909686941
F		2.749102187		-3.563492557		-0.475323152
F		-1.209866773		-3.611719665		-1.081582269
F		1.904620956		-1.405914612		1.18869636
F		0.809736724		-1.508776402		-1.492489345
F		0.095979991		-1.172527521		3.441384361
F		0.409616859		1.135199166		1.199076352
F		-0.959601309		-1.460625481		0.817983452
