12
-187.24475565
Al		0.368651687		-0.599070718		1.743185235
Al		2.335762551		-1.797020852		-0.546564576
Al		-0.914950362		-1.822593472		-0.97020703
F		3.479835509		-0.495795415		-1.086849983
F		-1.823711955		-0.564883651		-1.910267449
F		2.749408807		-3.563521329		-0.474909616
F		-1.209455753		-3.611681677		-1.081891259
F		1.90481848		-1.405687994		1.188143234
F		0.809184888		-1.50878349		-1.492569737
F		0.095656697		-1.172531673		3.441337263
F		0.409700141		1.135200236		1.199088484
F		-0.959564145		-1.460849085		0.818570768
