12
-187.24475565
Al		0.369115699		-0.599064758		1.743252833
Al		2.335403019		-1.79722273		-0.547225822
Al		-0.915488542		-1.822403124		-0.969676564
F		3.479925187		-0.495782357		-1.086217563
F		-1.823445299		-0.564892133		-1.910847957
F		2.749715427		-3.563550101		-0.47449608
F		-1.209044733		-3.611643689		-1.082200249
F		1.905016004		-1.405461376		1.187590108
F		0.808633052		-1.508790578		-1.492650129
F		0.095333403		-1.172535825		3.441290165
F		0.409783423		1.135201306		1.199100616
F		-0.959526981		-1.461072689		0.819158084
