12
-187.24475565
Al		0.369811717		-0.599055818		1.74335423
Al		2.334863721		-1.797525547		-0.548217691
Al		-0.916295812		-1.822117602		-0.968880865
F		3.480059704		-0.49576277		-1.085268933
F		-1.823045315		-0.564904856		-1.911718719
F		2.750175357		-3.563593259		-0.473875776
F		-1.208428203		-3.611586707		-1.082663734
F		1.90531229		-1.405121449		1.186760419
F		0.807805298		-1.50880121		-1.492770717
F		0.094848462		-1.172542053		3.441219518
F		0.409908346		1.135202911		1.199118814
F		-0.959471235		-1.461408095		0.820039058
