12
-187.24475565
Al		0.370275729		-0.599049858		1.743421828
Al		2.334504189		-1.797727425		-0.548878937
Al		-0.916833992		-1.821927254		-0.968350399
F		3.480149382		-0.495749712		-1.084636513
F		-1.822778659		-0.564913338		-1.912299227
F		2.750481977		-3.563622031		-0.47346224
F		-1.208017183		-3.611548719		-1.082972724
F		1.905509814		-1.404894831		1.186207293
F		0.807253462		-1.508808298		-1.492851109
F		0.094525168		-1.172546205		3.44117242
F		0.409991628		1.135203981		1.199130946
F		-0.959434071		-1.461631699		0.820626374
