12
-187.24475565
Al		0.370971747		-0.599040918		1.743523225
Al		2.333964891		-1.798030242		-0.549870806
Al		-0.917641262		-1.821641732		-0.9675547
F		3.480283899		-0.495730125		-1.083687883
F		-1.822378675		-0.564926061		-1.913169989
F		2.750941907		-3.563665189		-0.472841936
F		-1.207400653		-3.611491737		-1.083436209
F		1.9058061		-1.404554904		1.185377604
F		0.806425708		-1.50881893		-1.492971697
F		0.094040227		-1.172552433		3.441101773
F		0.410116551		1.135205586		1.199149144
F		-0.959378325		-1.461967105		0.821507348
