12
-187.24475565
Al		0.371203753		-0.599037938		1.743557024
Al		2.333785125		-1.798131181		-0.550201429
Al		-0.917910352		-1.821546558		-0.967289467
F		3.480328738		-0.495723596		-1.083371673
F		-1.822245347		-0.564930302		-1.913460243
F		2.751095217		-3.563679575		-0.472635168
F		-1.207195143		-3.611472743		-1.083590704
F		1.905904862		-1.404441595		1.185101041
F		0.80614979		-1.508822474		-1.493011893
F		0.09387858		-1.172554509		3.441078224
F		0.410158192		1.135206121		1.19915521
F		-0.959359743		-1.462078907		0.821801006
