12
-187.24475565
Al		0.371435759		-0.599034958		1.743590823
Al		2.333605359		-1.79823212		-0.550532052
Al		-0.918179442		-1.821451384		-0.967024234
F		3.480373577		-0.495717067		-1.083055463
F		-1.822112019		-0.564934543		-1.913750497
F		2.751248527		-3.563693961		-0.4724284
F		-1.206989633		-3.611453749		-1.083745199
F		1.906003624		-1.404328286		1.184824478
F		0.805873872		-1.508826018		-1.493052089
F		0.093716933		-1.172556585		3.441054675
F		0.410199833		1.135206656		1.199161276
F		-0.959341161		-1.462190709		0.822094664
