12
-187.24475565
Al		0.347075129		-0.599347858		1.740041928
Al		2.352480789		-1.787633525		-0.515816637
Al		-0.889924992		-1.831444654		-0.994873699
F		3.475665482		-0.496402612		-1.116257513
F		-1.836111459		-0.564489238		-1.883273827
F		2.735150977		-3.562183431		-0.49413904
F		-1.228568183		-3.613448119		-1.067523224
F		1.895633614		-1.416225731		1.213863593
F		0.834845262		-1.508453898		-1.488831509
F		0.110689868		-1.172338605		3.44352732
F		0.405827528		1.135150481		1.198524346
F		-0.961292271		-1.450451499		0.791260574
