12
-187.24475565
Al		0.346843123		-0.599350838		1.740008129
Al		2.352660555		-1.787532586		-0.515486014
Al		-0.889655902		-1.831539828		-0.995138932
F		3.475620643		-0.496409141		-1.116573723
F		-1.836244787		-0.564484997		-1.882983573
F		2.734997667		-3.562169045		-0.494345808
F		-1.228773693		-3.613467113		-1.067368729
F		1.895534852		-1.41633904		1.214140156
F		0.83512118		-1.508450354		-1.488791313
F		0.110851515		-1.172336529		3.443550869
F		0.405785887		1.135149946		1.19851828
F		-0.961310853		-1.450339697		0.790966916
