12
-187.24475565
Al		0.346611117		-0.599353818		1.73997433
Al		2.352840321		-1.787431647		-0.515155391
Al		-0.889386812		-1.831635002		-0.995404165
F		3.475575804		-0.49641567		-1.116889933
F		-1.836378115		-0.564480756		-1.882693319
F		2.734844357		-3.562154659		-0.494552576
F		-1.228979203		-3.613486107		-1.067214234
F		1.89543609		-1.416452349		1.214416719
F		0.835397098		-1.50844681		-1.488751117
F		0.111013162		-1.172334453		3.443574418
F		0.405744246		1.135149411		1.198512214
F		-0.961329435		-1.450227895		0.790673258
