12
-187.24475565
Al		0.346147105		-0.599359778		1.739906732
Al		2.353199853		-1.787229769		-0.514494145
Al		-0.888848632		-1.83182535		-0.995934631
F		3.475486126		-0.496428728		-1.117522353
F		-1.836644771		-0.564472274		-1.882112811
F		2.734537737		-3.562125887		-0.494966112
F		-1.229390223		-3.613524095		-1.066905244
F		1.895238566		-1.416678967		1.214969845
F		0.835948934		-1.508439722		-1.488670725
F		0.111336456		-1.172330301		3.443621516
F		0.405660964		1.135148341		1.198500082
F		-0.961366599		-1.450004291		0.790085942
