12
-187.24475565
Al		0.345915099		-0.599362758		1.739872933
Al		2.353379619		-1.78712883		-0.514163522
Al		-0.888579542		-1.831920524		-0.996199864
F		3.475441287		-0.496435257		-1.117838563
F		-1.836778099		-0.564468033		-1.881822557
F		2.734384427		-3.562111501		-0.49517288
F		-1.229595733		-3.613543089		-1.066750749
F		1.895139804		-1.416792276		1.215246408
F		0.836224852		-1.508436178		-1.488630529
F		0.111498103		-1.172328225		3.443645065
F		0.405619323		1.135147806		1.198494016
F		-0.961385181		-1.449892489		0.789792284
