12
-187.24475565
Al		0.345451087		-0.599368718		1.739805335
Al		2.353739151		-1.786926952		-0.513502276
Al		-0.888041362		-1.832110872		-0.99673033
F		3.475351609		-0.496448315		-1.118470983
F		-1.837044755		-0.564459551		-1.881242049
F		2.734077807		-3.562082729		-0.495586416
F		-1.230006753		-3.613581077		-1.066441759
F		1.89494228		-1.417018894		1.215799534
F		0.836776688		-1.50842909		-1.488550137
F		0.111821397		-1.172324073		3.443692163
F		0.405536041		1.135146736		1.198481884
F		-0.961422345		-1.449668885		0.789204968
