12
-187.24475565
Al		0.343827045		-0.599389578		1.739568742
Al		2.354997513		-1.786220379		-0.511187915
Al		-0.886157732		-1.83277709		-0.998586961
F		3.475037736		-0.496494018		-1.120684453
F		-1.837978051		-0.564429864		-1.879210271
F		2.733004637		-3.561982027		-0.497033792
F		-1.231445323		-3.613714035		-1.065360294
F		1.894250946		-1.417812057		1.217735475
F		0.838708114		-1.508404282		-1.488268765
F		0.112952926		-1.172309541		3.443857006
F		0.405244554		1.135142991		1.198439422
F		-0.961552419		-1.448886271		0.787149362
