12
-187.24475565
Al		0.343131027		-0.599398518		1.739467345
Al		2.355536811		-1.785917562		-0.510196046
Al		-0.885350462		-1.833062612		-0.99938266
F		3.474903219		-0.496513605		-1.121633083
F		-1.838378035		-0.564417141		-1.878339509
F		2.732544707		-3.561938869		-0.497654096
F		-1.232061853		-3.613771017		-1.064896809
F		1.89395466		-1.418151984		1.218565164
F		0.839535868		-1.50839365		-1.488148177
F		0.113437867		-1.172303313		3.443927653
F		0.405119631		1.135141386		1.198421224
F		-0.961608165		-1.448550865		0.786268388
