12
-187.24475565
Al		0.348931177		-0.599324018		1.74031232
Al		2.351042661		-1.788441037		-0.518461621
Al		-0.892077712		-1.830683262		-0.992751835
F		3.476024194		-0.49635038		-1.113727833
F		-1.835044835		-0.564523166		-1.885595859
F		2.736377457		-3.562298519		-0.492484896
F		-1.226924103		-3.613296167		-1.068759184
F		1.89642371		-1.415319259		1.211651089
F		0.832637918		-1.50848225		-1.489153077
F		0.109396692		-1.172355213		3.443338928
F		0.406160656		1.135154761		1.198572874
F		-0.961143615		-1.451345915		0.793609838
