12
-187.24475565
Al		0.342667015		-0.599404478		1.739399747
Al		2.355896343		-1.785715684		-0.5095348
Al		-0.884812282		-1.83325296		-0.999913126
F		3.474813541		-0.496526663		-1.122265503
F		-1.838644691		-0.564408659		-1.877759001
F		2.732238087		-3.561910097		-0.498067632
F		-1.232472873		-3.613809005		-1.064587819
F		1.893757136		-1.418378602		1.21911829
F		0.840087704		-1.508386562		-1.488067785
F		0.113761161		-1.172299161		3.443974751
F		0.405036349		1.135140316		1.198409092
F		-0.961645329		-1.448327261		0.785681072
