12
-187.24475565
Al		0.342435009		-0.599407458		1.739365948
Al		2.356076109		-1.785614745		-0.509204177
Al		-0.884543192		-1.833348134		-1.000178359
F		3.474768702		-0.496533192		-1.122581713
F		-1.838778019		-0.564404418		-1.877468747
F		2.732084777		-3.561895711		-0.4982744
F		-1.232678383		-3.613827999		-1.064433324
F		1.893658374		-1.418491911		1.219394853
F		0.840363622		-1.508383018		-1.488027589
F		0.113922808		-1.172297085		3.4439983
F		0.404994708		1.135139781		1.198403026
F		-0.961663911		-1.448215459		0.785387414
