12
-187.24475565
Al		0.341506985		-0.599419378		1.739230752
Al		2.356795173		-1.785210989		-0.507881685
Al		-0.883466832		-1.83372883		-1.001239291
F		3.474589346		-0.496559308		-1.123846553
F		-1.839311331		-0.564387454		-1.876307731
F		2.731471537		-3.561838167		-0.499101472
F		-1.233500423		-3.613903975		-1.063815344
F		1.893263326		-1.418945147		1.220501105
F		0.841467294		-1.508368842		-1.487866805
F		0.114569396		-1.172288781		3.444092496
F		0.404828144		1.135137641		1.198378762
F		-0.961738239		-1.447768251		0.784212782
