12
-187.24475565
Al		0.341274979		-0.599422358		1.739196953
Al		2.356974939		-1.78511005		-0.507551062
Al		-0.883197742		-1.833824004		-1.001504524
F		3.474544507		-0.496565837		-1.124162763
F		-1.839444659		-0.564383213		-1.876017477
F		2.731318227		-3.561823781		-0.49930824
F		-1.233705933		-3.613922969		-1.063660849
F		1.893164564		-1.419058456		1.220777668
F		0.841743212		-1.508365298		-1.487826609
F		0.114731043		-1.172286705		3.444116045
F		0.404786503		1.135137106		1.198372696
F		-0.961756821		-1.447656449		0.783919124
