12
-187.24475565
Al		0.341042973		-0.599425338		1.739163154
Al		2.357154705		-1.785009111		-0.507220439
Al		-0.882928652		-1.833919178		-1.001769757
F		3.474499668		-0.496572366		-1.124478973
F		-1.839577987		-0.564378972		-1.875727223
F		2.731164917		-3.561809395		-0.499515008
F		-1.233911443		-3.613941963		-1.063506354
F		1.893065802		-1.419171765		1.221054231
F		0.84201913		-1.508361754		-1.487786413
F		0.11489269		-1.172284629		3.444139594
F		0.404744862		1.135136571		1.19836663
F		-0.961775403		-1.447544647		0.783625466
