12
-187.24475565
Al		0.348699171		-0.599326998		1.740278521
Al		2.351222427		-1.788340098		-0.518130998
Al		-0.891808622		-1.830778436		-0.993017068
F		3.475979355		-0.496356909		-1.114044043
F		-1.835178163		-0.564518925		-1.885305605
F		2.736224147		-3.562284133		-0.492691664
F		-1.227129613		-3.613315161		-1.068604689
F		1.896324948		-1.415432568		1.211927652
F		0.832913836		-1.508478706		-1.489112881
F		0.109558339		-1.172353137		3.443362477
F		0.406119015		1.135154226		1.198566808
F		-0.961162197		-1.451234113		0.79331618
