12
-187.24475565
Al		0.339186925		-0.599449178		1.738892762
Al		2.358592833		-1.784201599		-0.504575455
Al		-0.880775932		-1.83468057		-1.003891621
F		3.474140956		-0.496624598		-1.127008653
F		-1.840644611		-0.564345044		-1.873405191
F		2.729938437		-3.561694307		-0.501169152
F		-1.235555523		-3.614093915		-1.062270394
F		1.892275706		-1.420078237		1.223266735
F		0.844226474		-1.508333402		-1.487464845
F		0.116185866		-1.172268021		3.444327986
F		0.404411734		1.135132291		1.198318102
F		-0.961924059		-1.446650231		0.781276202
