12
-187.24475565
Al		0.338954919		-0.599452158		1.738858963
Al		2.358772599		-1.78410066		-0.504244832
Al		-0.880506842		-1.834775744		-1.004156854
F		3.474096117		-0.496631127		-1.127324863
F		-1.840777939		-0.564340803		-1.873114937
F		2.729785127		-3.561679921		-0.50137592
F		-1.235761033		-3.614112909		-1.062115899
F		1.892176944		-1.420191546		1.223543298
F		0.844502392		-1.508329858		-1.487424649
F		0.116347513		-1.172265945		3.444351535
F		0.404370093		1.135131756		1.198312036
F		-0.961942641		-1.446538429		0.780982544
