12
-187.24475565
Al		0.338258901		-0.599461098		1.738757566
Al		2.359311897		-1.783797843		-0.503252963
Al		-0.879699572		-1.835061266		-1.004952553
F		3.4739616		-0.496650714		-1.128273493
F		-1.841177923		-0.56432808		-1.872244175
F		2.729325197		-3.561636763		-0.501996224
F		-1.236377563		-3.614169891		-1.061652414
F		1.891880658		-1.420531473		1.224372987
F		0.845330146		-1.508319226		-1.487304061
F		0.116832454		-1.172259717		3.444422182
F		0.40424517		1.135130151		1.198293838
F		-0.961998387		-1.446203023		0.78010157
