12
-187.24475565
Al		0.337794889		-0.599467058		1.738689968
Al		2.359671429		-1.783595965		-0.502591717
Al		-0.879161392		-1.835251614		-1.005483019
F		3.473871922		-0.496663772		-1.128905913
F		-1.841444579		-0.564319598		-1.871663667
F		2.729018577		-3.561607991		-0.50240976
F		-1.236788583		-3.614207879		-1.061343424
F		1.891683134		-1.420758091		1.224926113
F		0.845881982		-1.508312138		-1.487223669
F		0.117155748		-1.172255565		3.44446928
F		0.404161888		1.135129081		1.198281706
F		-0.962035551		-1.445979419		0.779514254
