12
-187.24475565
Al		0.337330877		-0.599473018		1.73862237
Al		2.360030961		-1.783394087		-0.501930471
Al		-0.878623212		-1.835441962		-1.006013485
F		3.473782244		-0.49667683		-1.129538333
F		-1.841711235		-0.564311116		-1.871083159
F		2.728711957		-3.561579219		-0.502823296
F		-1.237199603		-3.614245867		-1.061034434
F		1.89148561		-1.420984709		1.225479239
F		0.846433818		-1.50830505		-1.487143277
F		0.117479042		-1.172251413		3.444516378
F		0.404078606		1.135128011		1.198269574
F		-0.962072715		-1.445755815		0.778926938
