12
-187.24475565
Al		0.336634859		-0.599481958		1.738520973
Al		2.360570259		-1.78309127		-0.500938602
Al		-0.877815942		-1.835727484		-1.006809184
F		3.473647727		-0.496696417		-1.130486963
F		-1.842111219		-0.564298393		-1.870212397
F		2.728252027		-3.561536061		-0.5034436
F		-1.237816133		-3.614302849		-1.060570949
F		1.891189324		-1.421324636		1.226308928
F		0.847261572		-1.508294418		-1.487022689
F		0.117963983		-1.172245185		3.444587025
F		0.403953683		1.135126406		1.198251376
F		-0.962128461		-1.445420409		0.778045964
