12
-187.24475565
Al		0.335010817		-0.599502818		1.73828438
Al		2.361828621		-1.782384697		-0.498624241
Al		-0.875932312		-1.836393702		-1.008665815
F		3.473333854		-0.49674212		-1.132700433
F		-1.843044515		-0.564268706		-1.868180619
F		2.727178857		-3.561435359		-0.504890976
F		-1.239254703		-3.614435807		-1.059489484
F		1.89049799		-1.422117799		1.228244869
F		0.849192998		-1.50826961		-1.486741317
F		0.119095512		-1.172230653		3.444751868
F		0.403662196		1.135122661		1.198208914
F		-0.962258535		-1.444637795		0.775990358
