12
-187.24475565
Al		0.334778811		-0.599505798		1.738250581
Al		2.362008387		-1.782283758		-0.498293618
Al		-0.875663222		-1.836488876		-1.008931048
F		3.473289015		-0.496748649		-1.133016643
F		-1.843177843		-0.564264465		-1.867890365
F		2.727025547		-3.561420973		-0.505097744
F		-1.239460213		-3.614454801		-1.059334989
F		1.890399228		-1.422231108		1.228521432
F		0.849468916		-1.508266066		-1.486701121
F		0.119257159		-1.172228577		3.444775417
F		0.403620555		1.135122126		1.198202848
F		-0.962277117		-1.444525993		0.7756967
