12
-187.24475565
Al		0.334082793		-0.599514738		1.738149184
Al		2.362547685		-1.781980941		-0.497301749
Al		-0.874855952		-1.836774398		-1.009726747
F		3.473154498		-0.496768236		-1.133965273
F		-1.843577827		-0.564251742		-1.867019603
F		2.726565617		-3.561377815		-0.505718048
F		-1.240076743		-3.614511783		-1.058871504
F		1.890102942		-1.422571035		1.229351121
F		0.85029667		-1.508255434		-1.486580533
F		0.1197421		-1.172222349		3.444846064
F		0.403495632		1.135120521		1.19818465
F		-0.962332863		-1.444190587		0.774815726
