12
-187.24475565
Al		0.333386775		-0.599523678		1.738047787
Al		2.363086983		-1.781678124		-0.49630988
Al		-0.874048682		-1.83705992		-1.010522446
F		3.473019981		-0.496787823		-1.134913903
F		-1.843977811		-0.564239019		-1.866148841
F		2.726105687		-3.561334657		-0.506338352
F		-1.240693273		-3.614568765		-1.058408019
F		1.889806656		-1.422910962		1.23018081
F		0.851124424		-1.508244802		-1.486459945
F		0.120227041		-1.172216121		3.444916711
F		0.403370709		1.135118916		1.198166452
F		-0.962388609		-1.443855181		0.773934752
