12
-187.24475565
Al		0.331066715		-0.599553478		1.737709797
Al		2.364884643		-1.780668734		-0.49300365
Al		-0.871357782		-1.83801166		-1.013174776
F		3.472571591		-0.496853113		-1.138076003
F		-1.845311091		-0.564196609		-1.863246301
F		2.724572587		-3.561190797		-0.508406032
F		-1.242748373		-3.614758705		-1.056863069
F		1.888819036		-1.424044052		1.23294644
F		0.853883604		-1.508209362		-1.486057985
F		0.121843511		-1.172195361		3.445152201
F		0.402954299		1.135113566		1.198105792
F		-0.962574429		-1.442737161		0.770998172
