12
-187.24475565
Al		0.330602703		-0.599559438		1.737642199
Al		2.365244175		-1.780466856		-0.492342404
Al		-0.870819602		-1.838202008		-1.013705242
F		3.472481913		-0.496866171		-1.138708423
F		-1.845577747		-0.564188127		-1.862665793
F		2.724265967		-3.561162025		-0.508819568
F		-1.243159393		-3.614796693		-1.056554079
F		1.888621512		-1.42427067		1.233499566
F		0.85443544		-1.508202274		-1.485977593
F		0.122166805		-1.172191209		3.445199299
F		0.402871017		1.135112496		1.19809366
F		-0.962611593		-1.442513557		0.770410856
