12
-187.24475565
Al		0.329442673		-0.599574338		1.737473204
Al		2.366143005		-1.779962161		-0.490689289
Al		-0.869474152		-1.838677878		-1.015031407
F		3.472257718		-0.496898816		-1.140289473
F		-1.846244387		-0.564166922		-1.861214523
F		2.723499417		-3.561090095		-0.509853408
F		-1.244186943		-3.614891663		-1.055781604
F		1.888127702		-1.424837215		1.234882381
F		0.85581503		-1.508184554		-1.485776613
F		0.12297504		-1.172180829		3.445317044
F		0.402662812		1.135109821		1.19806333
F		-0.962704503		-1.441954547		0.768942566
