12
-187.24475565
Al		0.347539141		-0.599341898		1.740109526
Al		2.352121257		-1.787835403		-0.516477883
Al		-0.890463172		-1.831254306		-0.994343233
F		3.47575516		-0.496389554		-1.115625093
F		-1.835844803		-0.56449772		-1.883854335
F		2.735457597		-3.562212203		-0.493725504
F		-1.228157163		-3.613410131		-1.067832214
F		1.895831138		-1.415999113		1.213310467
F		0.834293426		-1.508460986		-1.488911901
F		0.110366574		-1.172342757		3.443480222
F		0.40591081		1.135151551		1.198536478
F		-0.961255107		-1.450675103		0.79184789
