12
-187.24475565
Al		0.328514649		-0.599586258		1.737338008
Al		2.366862069		-1.779558405		-0.489366797
Al		-0.868397792		-1.839058574		-1.016092339
F		3.472078362		-0.496924932		-1.141554313
F		-1.846777699		-0.564149958		-1.860053507
F		2.722886177		-3.561032551		-0.51068048
F		-1.245008983		-3.614967639		-1.055163624
F		1.887732654		-1.425290451		1.235988633
F		0.856918702		-1.508170378		-1.485615829
F		0.123621628		-1.172172525		3.44541124
F		0.402496248		1.135107681		1.198039066
F		-0.962778831		-1.441507339		0.767767934
