12
-187.24475565
Al		0.327354619		-0.599601158		1.737169013
Al		2.367760899		-1.77905371		-0.487713682
Al		-0.867052342		-1.839534444		-1.017418504
F		3.471854167		-0.496957577		-1.143135363
F		-1.847444339		-0.564128753		-1.858602237
F		2.722119627		-3.560960621		-0.51171432
F		-1.246036533		-3.615062609		-1.054391149
F		1.887238844		-1.425856996		1.237371448
F		0.858298292		-1.508152658		-1.485414849
F		0.124429863		-1.172162145		3.445528985
F		0.402288043		1.135105006		1.198008736
F		-0.962871741		-1.440948329		0.766299644
