12
-187.24475565
Al		0.327122613		-0.599604138		1.737135214
Al		2.367940665		-1.778952771		-0.487383059
Al		-0.866783252		-1.839629618		-1.017683737
F		3.471809328		-0.496964106		-1.143451573
F		-1.847577667		-0.564124512		-1.858311983
F		2.721966317		-3.560946235		-0.511921088
F		-1.246242043		-3.615081603		-1.054236654
F		1.887140082		-1.425970305		1.237648011
F		0.85857421		-1.508149114		-1.485374653
F		0.12459151		-1.172160069		3.445552534
F		0.402246402		1.135104471		1.19800267
F		-0.962890323		-1.440836527		0.766005986
