12
-187.24475565
Al		0.326658601		-0.599610098		1.737067616
Al		2.368300197		-1.778750893		-0.486721813
Al		-0.866245072		-1.839819966		-1.018214203
F		3.47171965		-0.496977164		-1.144083993
F		-1.847844323		-0.56411603		-1.857731475
F		2.721659697		-3.560917463		-0.512334624
F		-1.246653063		-3.615119591		-1.053927664
F		1.886942558		-1.426196923		1.238201137
F		0.859126046		-1.508142026		-1.485294261
F		0.124914804		-1.172155917		3.445599632
F		0.40216312		1.135103401		1.197990538
F		-0.962927487		-1.440612923		0.76541867
