      12
SCF Done            -163.86320438
Al           -0.166693813         1.578678772         2.385172820
Al            2.457362496         2.490245825         1.703693575
Al            1.301980884         2.527514184        -0.536820854
F             0.924279778         3.177102536         2.653244863
F            -1.467558683         2.922188322         1.961062786
F            -0.316598671        -0.261167866         2.703757430
F             1.685453753         0.768061593         1.914540265
F             3.193126145         2.106299053        -0.110755216
F             1.128801809         3.063744533        -2.254713412
F             1.854069294         4.009988187         0.551131667
F             4.008483768         3.128261177         2.364186380
F            -0.115218591         1.914889410         0.421089093
