      12
SCF Done            -184.09398785
Al           -0.053814657         1.634786796         2.146342721
Al            2.477632496         2.820847025         1.667110775
Al            1.272592458         2.766463781        -0.619830053
F             1.010385352         3.072946919         2.830491232
F            -1.633931147         2.720226743         2.178383495
F            -0.488005860        -0.031960218         2.754437860
F             1.759726969         0.679731585         1.952948634
F             3.061198942         1.794934672        -0.045267254
F             1.095758114         3.020056952        -2.363799804
F             1.769762868         3.884073787         0.629707265
F             4.182178966         3.138660811         2.492493968
F             0.014119400         1.805137768         0.201256305
