      12
SCF Done            -164.68981530
Al           -0.053814613         1.634786772         2.146342820
Al            2.477632496         2.820847025         1.667110775
Al            1.272592484         2.766463384        -0.619830054
F             1.010385378         3.072946936         2.830491263
F            -1.633931083         2.720226722         2.178383586
F            -0.488005871        -0.031960266         2.754437830
F             1.759726953         0.679731593         1.952948665
F             3.061198945         1.794934653        -0.045267216
F             1.095758209         3.020056933        -2.363799812
F             1.769762894         3.884073787         0.629707267
F             4.182178968         3.138660777         2.492493980
F             0.014119409         1.805137810         0.201256293
