12
Properties=species:S:1:pos:R:3:forces:R:3 energy=-182.05544674 pbc="F F F"
Al    -0.11233502799999998    -2.2445511110000003    -1.7543293610000001    -2.205628    1.742785    6.74501
Al    2.02011313    -0.894183756    -0.613222124    -5.140179    -1.238361    5.044007
Al    -0.20594320600000002    0.509947403    -1.476973583    -1.186872    -2.656398    6.703149
F    3.6309922880000003    -0.173378116    -0.046729023    0.47296    0.112737    -0.33722
F    -0.155442974    -4.031963393    -2.242910636    0.141855    -0.223638    -0.529147
F    2.165193638    -1.858834776    -2.398715589    2.008792    -0.443535    -2.688241
F    1.620408995    0.7091433389999999    -2.35125042    1.598118    1.329825    -2.671364
F    -1.479485422    1.650762031    -2.1925419109999997    0.026905    0.272743    -0.524423
F    -0.940084486    -1.705809852    -1.087365769    2.870775    0.684076    -2.023571
F    -0.11966897400000001    -0.9837390090000001    -3.351167681    0.415158    0.128089    -3.357058
F    0.13336199599999998    0.506850498    -0.334557002    0.849844    -1.368927    -3.194986
F    1.395443134    -1.7105491099999999    -0.010250173000000001    0.148269    1.660606    -3.166155
