      12
SCF Done            -182.05544674
Al            0.184457972        -2.351009111        -1.629770361
Al            1.943630130        -0.563915756        -0.610079124
Al           -0.426252206         0.286141403        -1.604674583
F             3.632122288        -0.178256116        -0.046775023
F            -0.159826974        -4.030390393        -2.244750636
F             2.185394638        -1.838313776        -2.387006589
F             1.593194995         0.718904339        -2.362671420
F            -1.476231422         1.654068031        -2.190655911
F            -1.045274486        -1.251583852        -1.083042769
F            -0.112655974        -1.014022009        -3.351455681
F             0.541556996         0.360433498        -0.163247002
F             1.092438134        -2.018364110        -0.185884173
