12
Properties=species:S:1:pos:R:3:forces:R:3 energy=-185.75644995 pbc="F F F"
Al    0.397389172    -2.307224011    -2.067332061    0.023373    0.021921    -0.002656
Al    1.97552693    -0.555330256    -0.682889224    -0.073146    0.035401    0.11834
Al    -0.386466006    0.290621303    -1.693520083    0.099177    0.047703    -0.08299
F    3.5170038879999996    -0.027377416000000016    0.116192177    -0.019971    -0.005572    0.043248
F    -0.254951174    -3.9440692929999996    -2.521808236    0.001933    0.000508    -0.004512
F    2.294647038    -2.022167476    -2.201729789    -0.0209    0.030972    -0.089833
F    1.4634794949999999    0.178635539    -2.43901582    -0.034968    -0.021345    -0.011691
F    -1.5558848220000001    1.6103467310000001    -2.0870247109999998    0.017595    0.004041    -0.039151
F    -0.8588074859999999    -1.2597718519999999    -0.819909969    0.013787    -0.018755    0.105969
F    -0.325265574    -1.050739309    -3.2705257810000004    -0.084237    -0.019242    -0.033396
F    0.6578501959999999    0.831475798    -0.005620001999999999    0.022845    -0.02106    -0.009113
F    0.9734891339999999    -1.9816026100000002    -0.071997773    0.05451    -0.054573    0.005785
