      12
SCF Done            -185.75644995
Al            0.277419172        -2.327564011        -1.831237061
Al            2.016215930        -0.545609256        -0.767388224
Al           -0.318586006         0.313295303        -1.838010083
F             3.602370888        -0.185759416         0.017703177
F            -0.164506174        -4.031570293        -2.234609236
F             2.057646038        -1.748080476        -2.318481789
F             1.531549495         0.646395539        -2.266680820
F            -1.462815822         1.657451731        -2.219729711
F            -1.070771486        -1.257093852        -0.940539969
F            -0.203720574        -1.037909309        -3.241345781
F             0.503222196         0.407726798        -0.042559002
F             1.132172134        -2.130794610        -0.063663773
