12
Properties=species:S:1:pos:R:3:forces:R:3 energy=-186.56192431 pbc="F F F"
Al    -0.24868933799999998    0.97164026    -1.720452836    -0.000359    0.066428    0.008018
Al    -0.695075814    1.263459353    1.368410836    -0.007842    -0.022282    -0.001714
Al    -2.884666319    0.32929488900000004    -2.038158942    0.011416    -0.03574    -0.01736
F    -3.240195561    0.06753380799999997    -3.791569608    0.00037    0.00357    0.006225
F    -1.2447071570000001    -0.6368632009999999    -1.746011445    -0.036336    -0.028216    -0.000853
F    -1.862682787    1.977543203    -2.051910983    0.035176    -0.000274    0.001376
F    -2.1538733249999997    0.802672539    0.392163324    0.003765    0.001165    0.002501
F    0.539616727    1.3468010430000001    -0.13501461099999998    0.00193    -0.002012    -0.009079
F    -0.601639375    2.943647797    1.974658547    0.001707    0.014879    0.005267
F    0.10334231500000002    -0.13945485800000001    2.292037445    -0.001881    0.004127    -0.001774
F    -4.281191592000001    0.17127187    -0.831892465    -0.01128    0.001877    0.010699
F    0.980567727    1.115597537    -3.057590029    0.003334    -0.003522    -0.003305
