      12
SCF Done            -186.56192431
Al           -0.368126338         1.059989260        -1.818483836
Al           -0.450277814         1.070097353         1.283108836
Al           -3.013675319         0.437661889        -1.861181942
F            -3.525435561         0.303306808        -3.602521608
F            -1.356479157        -0.554906201        -1.853477445
F            -1.964375787         2.065223203        -1.882319983
F            -2.031384325         0.694708539         0.455132324
F             0.590395727         1.294769043        -0.292692611
F            -0.328592375         2.732156797         2.005208547
F             0.386959315        -0.351988858         2.039156445
F            -4.266910592         0.164559870        -0.583926465
F             0.739406727         1.296925537        -3.232114029
