12
Properties=species:S:1:pos:R:3:forces:R:3 energy=-186.39816852 pbc="F F F"
Al    -0.324069438    1.0767237600000001    -1.7037947359999999    0.005374    -0.426918    0.254243
Al    -0.405665714    1.085149253    1.301028436    -0.08103    0.075323    -0.054956
Al    -2.906116119    0.492434889    -1.823355342    -0.069785    0.115432    -0.023899
F    -3.403939661    0.302491408    -3.5690423079999998    -0.000487    0.036288    -0.003909
F    -1.280213557    -0.5640143009999999    -1.845103845    0.028273    -0.03933    0.169549
F    -1.9039496870000001    2.142656003    -1.814717583    0.024196    0.066167    -0.186922
F    -1.861832525    0.7828857389999999    0.218842624    -0.151983    0.266542    0.024677
F    0.836039327    1.1902128429999999    -0.265819311    0.147369    -0.34049    0.012365
F    -0.615912775    2.755449797    2.027572347    -0.281341    0.073388    0.113899
F    0.13507051499999995    -0.469609858    2.202599245    0.350551    -0.060958    -0.145375
F    -4.1230674920000006    0.25566527    -0.49405716499999996    -0.003253    -0.041148    0.007503
F    0.227558427    1.1458711369999999    -3.610923829    0.032117    0.275704    -0.167174
