12
Properties=species:S:1:pos:R:3:forces:R:3 energy=-184.90163967 pbc="F F F"
Al    -0.145361238    1.07858236    -1.922592636    -1.361079    -0.314296    -1.055985
Al    -0.5913916140000001    1.047088153    1.480287636    -1.567763    -0.313653    1.31951
Al    -3.3054611190000003    0.396717789    -1.865340442    1.594094    0.349316    0.251987
F    -3.480765561    0.322912908    -3.748624008    0.297409    0.07961    0.804002
F    -1.544281157    -0.211139301    -1.832660645    -1.962667    -1.557484    -0.049236
F    -1.9525900870000001    1.6781389030000002    -1.868694583    -2.430118    0.605459    -0.090489
F    -2.007525325    0.719501739    0.351217924    -0.90129    -0.2059    -0.58278
F    0.847146327    1.3285487429999998    -0.06302761099999998    2.677742    0.590721    0.629748
F    -0.28764267499999996    2.836625097    2.009883247    0.403001    1.569024    0.298823
F    0.419819115    -0.43687225799999996    2.072313845    1.012397    -1.25071    0.3526
F    -4.454387892000001    0.17701917    -0.36555406500000004    0.673055    0.130672    -0.775332
F    0.954215127    1.284070237    -3.608358029    1.565221    0.31724    -1.102849
