      12
SCF Done            -184.90163967
Al           -0.368850238         1.030807360        -1.895087636
Al           -0.584159614         1.048568153         1.475951636
Al           -2.966873119         0.470279789        -1.845080442
F            -3.509601561         0.320635908        -3.541260008
F            -1.517724157        -0.692777301        -1.849290645
F            -2.127094087         2.126830903        -1.903067583
F            -2.079185325         0.705351739         0.421304924
F             0.818506327         1.316571743        -0.366466611
F            -0.284274675         2.832771097         2.018742247
F             0.421226115        -0.431651258         2.080999845
F            -4.227736892         0.220859170        -0.635219065
F             0.854098127         1.267723237        -3.330999029
