12
Properties=species:S:1:pos:R:3:forces:R:3 energy=-185.62606368 pbc="F F F"
Al    0.34366717199999997    -2.335916811    -1.9982924610000001    -0.138937    0.717493    0.909437
Al    2.00151393    -0.563228456    -0.796061624    -0.137322    -0.190122    -0.418062
Al    -0.34336120600000003    0.275113303    -1.779466483    0.272434    -0.357736    -0.296631
F    3.570509088    -0.09757501599999999    0.014263577    0.097352    0.01547    0.22655
F    -0.435637974    -4.321813693    -1.809265036    0.00339    -0.706465    -0.612853
F    2.149091038    -1.728830876    -2.415203189    0.019961    0.090435    0.045961
F    1.508608695    0.6663291389999999    -2.21556182    0.012226    0.013196    -0.008205
F    -1.433966222    1.714143731    -2.085721111    -0.230158    0.150697    0.119274
F    -1.0744322860000002    -1.264272852    -1.111737969    0.052848    0.056311    0.010247
F    -0.012448974000000002    -0.956037309    -3.3243493809999998    0.017255    0.089634    0.045013
F    0.5048905960000001    0.439727998    -0.007200602    0.029259    0.045926    -0.011771
F    1.116630734    -2.0548570099999997    -0.19165617299999999    0.001692    0.075161    -0.00896
