12
Properties=species:S:1:pos:R:3:forces:R:3 energy=-187.31645785 pbc="F F F"
Al    0.9675996800000001    0.030942716999999995    2.506989673    -1.173324    -0.977664    -0.05175
Al    1.3790126    1.0818684    -0.0608686    0.127577    -0.004377    0.165387
Al    -0.092338962    0.94309825    -2.423008973    0.859113    1.053206    -0.642862
F    -1.583333772    -0.17256945299999998    -2.411323606    -0.72053    -0.614716    0.020378
F    1.729950853    -0.608943753    0.8136926520000001    0.102223    0.042671    -0.106852
F    0.407904339    1.91176429    -3.839322733    -0.181132    -0.331828    0.402533
F    -0.15575700999999997    1.998902953    -0.825637649    -0.141581    -0.011704    -0.047851
F    2.890897757    2.105733912    -0.251024243    0.094114    0.091738    -0.024619
F    1.3332648390000001    -0.023391394999999995    -1.6399668539999999    -0.032127    -0.106141    -0.047172
F    0.582979917    1.701164629    1.625180239    0.012064    0.159607    -0.069978
F    2.377911169    0.30490987599999997    3.697195037    0.515471    0.217938    0.472445
F    -0.660829125    -0.7686963520000001    2.925488671    0.538132    0.48127    -0.069659
