      12
SCF Done            -187.31645785
Al            1.083683680        -0.117524283         2.441293673
Al            1.305185600         1.171333400        -0.019112600
Al           -0.151287962         1.021890250        -2.389839973
F            -1.581797772        -0.167222453        -2.413593606
F             1.979267853        -0.438488753         0.779530652
F             0.313989339         2.035425290        -3.784483733
F            -0.266901010         2.013768953        -0.773404649
F             2.672563757         2.367544912        -0.129612243
F             1.332674839         0.102544605        -1.629369854
F             0.379689917         1.472733629         1.635496239
F             2.329029169         0.349343876         3.722631037
F            -0.215636125        -1.310357352         2.676089671
