      12
SCF Done            -187.38185309
Al            1.264832680         0.069704417         2.453244973
Al            1.276784000         1.189243000        -0.083083000
Al           -0.301298262         0.815027450        -2.331657673
F            -1.589792272        -0.464092453        -2.261434906
F             1.982109753        -0.391951753         0.743557052
F            -0.012952861         1.893595490        -3.764692633
F            -0.399374010         1.858391153        -0.734028549
F             2.587876557         2.420946512        -0.320355443
F             1.324372239         0.090473105        -1.671274554
F             0.501138517         1.604040829         1.636867239
F             2.606449269         0.522401476         3.591300437
F            -0.060207225        -1.106455352         2.856001371
