12
Properties=species:S:1:pos:R:3:forces:R:3 energy=-182.50995473 pbc="F F F"
Al    0.392820993    -0.827406658    1.464026139    0.951945    -4.087617    -6.174006
Al    2.013101365    -1.694331672    -0.40190099700000004    -7.695949    1.784209    2.278941
Al    -0.605520781    -1.727961858    -0.783386543    6.678673    1.968806    4.373065
F    3.084190607    -0.918636393    -0.9128137799999999    -1.805693    -2.223894    0.946272
F    -1.505514954    -0.9775803879999999    -1.5814501970000001    1.516054    -2.181227    1.430186
F    2.610810695    -3.0186986940000002    -0.49556934299999994    -0.411643    2.799833    -0.069438
F    -1.118173066    -3.0665886020000004    -1.03881402    0.343804    2.809541    0.040617
F    1.651008297    -1.332707393    0.949414202    -2.113076    0.713844    -2.521206
F    0.785844664    -1.6216199820000001    -1.163782565    -0.472919    -1.175114    3.349864
F    0.197334652    -0.989970463    2.820228089    0.402049    0.997617    -2.84772
F    0.390504071    0.676526899    1.347349236    -0.119071    -2.181984    1.009691
F    -0.653165968    -1.362299383    0.613737614    2.725827    0.775985    -1.81627
