      12
SCF Done            -182.50995473
Al            0.371826993        -0.729182658         1.599477139
Al            2.160446365        -1.733740672        -0.463855997
Al           -0.728030781        -1.770836858        -0.884654543
F             3.347692607        -0.672148393        -1.039466780
F            -1.728050954        -0.737334388        -1.778910197
F             2.707688695        -3.346762694        -0.501490343
F            -1.201055066        -3.396961602        -1.070923020
F             1.800035297        -1.373833393         1.087442202
F             0.810169664        -1.574980982        -1.334865565
F             0.138120652        -1.084558463         3.235028089
F             0.397952071         0.963675899         1.270910236
F            -0.834291968        -1.407665383         0.703668614
