      12
SCF Done            -187.34384318
Al            1.241100680         0.097383217         2.465790173
Al            1.276784000         1.189243000        -0.083083000
Al           -0.277565862         0.787349050        -2.344202873
F            -1.482107072        -0.589684453        -2.318359306
F             1.874023753        -0.445066153         0.727057852
F            -0.096332861         1.990841090        -3.720617033
F            -0.453139610         1.759454353        -0.688238549
F             2.587876557         2.420946512        -0.320355443
F             1.406488239         0.156344705        -1.732050954
F             0.580873717         1.690220029         1.668352839
F             2.689829669         0.425156676         3.547224437
F            -0.167892425        -0.980863352         2.912925771
