      12
SCF Done            -185.49260332
Al            0.266000772        -2.357783411        -1.834998661
Al            2.022111530        -0.561136056        -0.815608224
Al           -0.338796406         0.286646703        -1.806327283
F             3.587056488        -0.188437416        -0.050134423
F            -0.185059374        -4.102464293        -2.246161036
F             2.164356238        -1.763565076        -2.274402989
F             1.513115495         0.632821739        -2.224072020
F            -1.463158222         1.629153331        -2.168903111
F            -1.178197686        -1.211287052        -0.975424369
F            -0.130379374        -0.947023709        -3.246264381
F             0.525489796         0.383739398        -0.083681802
F             1.122587734        -2.026302410        -0.016673973
