12
Properties=species:S:1:pos:R:3:forces:R:3 energy=-184.61489710 pbc="F F F"
Al    -1.7138647610000002    2.61975842    -1.231069291    -0.122745    -0.409045    -0.187699
Al    -0.486603855    -0.020504294    -2.414523374    -2.845868    -0.161703    3.009365
Al    -2.257867976    -0.38089541800000004    -0.470900337    2.659382    0.958427    -3.031588
F    -0.717920041    3.720287636    -0.119383657    -0.081756    -0.125003    -0.097684
F    -3.063145247    3.193957493    -2.3542280919999996    -0.087485    0.21339    -0.04016
F    -1.3764174800000002    -1.4105670270000001    -1.670857961    -0.016726    -3.985967    -0.754329
F    -2.487942462    1.442391583    0.014892561999999998    -1.005492    0.547705    1.62248
F    -3.3503932630000004    -1.384964632    0.714277253    1.13227    1.051235    -1.206021
F    0.734245398    -0.5538833409999999    -3.7678330040000003    -1.245427    0.567458    1.403047
F    -0.367387425    1.8738504139999999    -2.312011031    1.376549    1.032366    -0.991353
F    -2.231109157    0.35760165099999996    -2.121898728    0.15653    0.044271    0.150854
F    -0.506479868    0.11023923899999999    -0.596074908    0.080767    0.266866    0.123088
