      12
SCF Done            -184.61489710
Al           -1.707827761         2.556577420        -1.237283291
Al           -0.606597855        -0.020240294        -2.268364374
Al           -2.128185976        -0.329830418        -0.598712337
F            -0.765544041         3.674495636        -0.171274657
F            -3.026122247         3.194777493        -2.320336092
F            -1.379803480        -2.000287027        -1.783290961
F            -2.599522462         1.495325583         0.173620562
F            -3.142231263        -1.201499632         0.490600253
F             0.505144398        -0.459386341        -3.511697004
F            -0.234046425         1.976617414        -2.422037031
F            -2.466747157         0.493353651        -2.311469728
F            -0.276415868         0.189638239        -0.371690908
