12
Properties=species:S:1:pos:R:3:forces:R:3 energy=-186.06617231 pbc="F F F"
Al    -1.6500887610000001    2.5289009200000003    -1.189797291    0.355728    0.338907    0.387027
Al    -0.588637855    -0.012953794000000001    -2.382694374    -0.558462    0.171896    0.28579
Al    -2.239283476    -0.348802418    -0.571427337    0.18711    0.323594    -0.532332
F    -0.692676041    3.657403136    -0.108038657    -0.22778    0.374474    -0.138146
F    -3.0001757469999997    2.993040993    -2.334097092    -0.007802    0.210747    0.031967
F    -1.36424948    -1.7277770270000001    -1.718586961    0.0707    -0.016179    0.061429
F    -2.5087029619999996    1.408085083    0.042269062    0.015665    -0.079348    0.035312
F    -3.3614917629999996    -1.0478221319999999    0.8272552529999999    0.048301    -0.712401    -0.014315
F    0.7823533979999999    -0.20469484100000002    -3.719821504    0.120392    -0.697733    -0.093422
F    -0.336683925    1.850014914    -2.3411065310000003    0.050606    -0.07224    -0.003029
F    -2.522953657    0.355372651    -2.388276728    -0.02731    -0.020674    -0.028724
F    -0.33852586799999995    0.126319739    -0.440033408    -0.027147    0.178955    0.008442
