12
Properties=species:S:1:pos:R:3:forces:R:3 energy=-186.39349496 pbc="F F F"
Al    0.033113343    1.718387596    1.8678185210000002    0.0    -0.0    -1e-06
Al    2.610357096    2.753251025    1.8432565749999998    1e-06    0.0    0.0
Al    1.4288196579999999    2.8356525809999997    -0.784808653    -0.0    0.0    -0.0
F    1.097407352    2.9878415190000003    3.063383832    0.0    0.0    0.0
F    -1.716766947    2.387928543    2.445349095    -0.0    -0.0    -0.0
F    -0.71375246    0.26707278199999995    2.81398226    0.0    -0.0    -0.0
F    1.964349369    0.993583585    1.958397234    0.0    -0.0    -0.0
F    2.680016342    1.5452588720000002    -0.025289453999999996    -0.0    -0.0    -0.0
F    1.036101714    2.998643952    -2.571653804    0.0    0.0    -0.0
F    1.614906868    4.021414587    0.735456265    -0.0    0.0    0.0
F    4.238827966000001    3.121975611    2.5791171680000002    0.0    0.0    -0.0
F    0.12219060000000001    1.658569368    -0.049497494999999975    -0.0    0.0    1e-06
