12
-185.77729729
Al		0.268684772		-2.341206711		-1.831831161
Al		2.02526533		-0.549873554		-0.812842324
Al		-0.340069605		0.300343705		-1.805320882
F		3.59977249		-0.185687115		-0.043946922
F		-0.175388174		-4.065287793		-2.237372236
F		2.131109436		-1.784489574		-2.27518249
F		1.531563595		0.641683242		-2.241318518
F		-1.479122423		1.647674332		-2.174114111
F		-1.161960683		-1.251337353		-0.982386867
F		-0.12151177		-0.98893271		-3.23725598
F		0.523779597		0.387516801		-0.057241102
F		1.102129831		-2.044001508		-0.045169874
