12
-185.77729729
Al		0.274502342		-2.330015526		-1.827844406
Al		2.03328576		-0.542286199		-0.808258529
Al		-0.335914465		0.307794975		-1.802536452
F		3.62131557		-0.18087229		-0.033446107
F		-0.168115404		-4.037126528		-2.230739176
F		2.105538206		-1.807697719		-2.286020075
F		1.52979721		0.654034677		-2.260977233
F		-1.482619323		1.651607452		-2.175269941
F		-1.145498563		-1.271409678		-0.993745332
F		-0.11755434		-1.01215879		-3.22151415
F		0.506752737		0.396019521		-0.043827167
F		1.079314386		-2.066514693		-0.061979729
