12
-185.77729729
Al		0.2744339		-2.330147187		-1.827891309
Al		2.033191402		-0.542375462		-0.808312456
Al		-0.335963349		0.307707313		-1.80256921
F		3.621062122		-0.180928935		-0.033569646
F		-0.168200966		-4.037457837		-2.230817212
F		2.105839044		-1.807424682		-2.285892574
F		1.529817991		0.653889366		-2.260745954
F		-1.482578183		1.65156118		-2.175256343
F		-1.145692235		-1.271173533		-0.993611703
F		-0.117600898		-1.011885542		-3.221699348
F		0.506953053		0.395919489		-0.043984978
F		1.079582803		-2.066249832		-0.061781966
