12
-185.77729729
Al		0.274297016		-2.330410509		-1.827985115
Al		2.033002686		-0.542553988		-0.80842031
Al		-0.336061117		0.307531989		-1.802634726
F		3.620555226		-0.181042225		-0.033816724
F		-0.16837209		-4.038120455		-2.230973284
F		2.10644072		-1.806878608		-2.285637572
F		1.529859553		0.653598744		-2.260283396
F		-1.482495903		1.651468636		-2.175229147
F		-1.146079579		-1.270701243		-0.993344445
F		-0.117694014		-1.011339046		-3.222069744
F		0.507353685		0.395719425		-0.0443006
F		1.080119637		-2.06572011		-0.06138644
