12
-185.77729729
Al		0.274160132		-2.330673831		-1.828078921
Al		2.03281397		-0.542732514		-0.808528164
Al		-0.336158885		0.307356665		-1.802700242
F		3.62004833		-0.181155515		-0.034063802
F		-0.168543214		-4.038783073		-2.231129356
F		2.107042396		-1.806332534		-2.28538257
F		1.529901115		0.653308122		-2.259820838
F		-1.482413623		1.651376092		-2.175201951
F		-1.146466923		-1.270228953		-0.993077187
F		-0.11778713		-1.01079255		-3.22244014
F		0.507754317		0.395519361		-0.044616222
F		1.080656471		-2.065190388		-0.060990914
