12
-185.77729729
Al		0.27409169		-2.330805492		-1.828125824
Al		2.032719612		-0.542821777		-0.808582091
Al		-0.336207769		0.307269003		-1.802733
F		3.619794882		-0.18121216		-0.034187341
F		-0.168628776		-4.039114382		-2.231207392
F		2.107343234		-1.806059497		-2.285255069
F		1.529921896		0.653162811		-2.259589559
F		-1.482372483		1.65132982		-2.175188353
F		-1.146660595		-1.269992808		-0.992943558
F		-0.117833688		-1.010519302		-3.222625338
F		0.507954633		0.395419329		-0.044774033
F		1.080924888		-2.064925527		-0.060793151
