12
-185.77729729
Al		0.273954806		-2.331068814		-1.82821963
Al		2.032530896		-0.543000303		-0.808689945
Al		-0.336305537		0.307093679		-1.802798516
F		3.619287986		-0.18132545		-0.034434419
F		-0.1687999		-4.039777		-2.231363464
F		2.10794491		-1.805513423		-2.285000067
F		1.529963458		0.652872189		-2.259127001
F		-1.482290203		1.651237276		-2.175161157
F		-1.147047939		-1.269520518		-0.9926763
F		-0.117926804		-1.009972806		-3.222995734
F		0.508355265		0.395219265		-0.045089655
F		1.081461722		-2.064395805		-0.060397625
