12
-185.77729729
Al		0.273612596		-2.331727119		-1.828454145
Al		2.032059106		-0.543446618		-0.80895958
Al		-0.336549957		0.306655369		-1.802962306
F		3.618020746		-0.181608675		-0.035052114
F		-0.16922771		-4.041433545		-2.231753644
F		2.1094491		-1.804148238		-2.284362562
F		1.530067363		0.652145634		-2.257970606
F		-1.482084503		1.651005916		-2.175093167
F		-1.148016299		-1.268339793		-0.992008155
F		-0.118159594		-1.008606566		-3.223921724
F		0.509356845		0.394719105		-0.04587871
F		1.082803807		-2.0630715		-0.05940881
