12
-185.77729729
Al		0.275323646		-2.328435594		-1.82728157
Al		2.034418056		-0.541215043		-0.807611405
Al		-0.335327857		0.308846919		-1.802143356
F		3.624356946		-0.18019255		-0.031963639
F		-0.16708866		-4.03315082		-2.229802744
F		2.10192815		-1.810974163		-2.287550087
F		1.529547838		0.655778409		-2.263752581
F		-1.483113003		1.652162716		-2.175433117
F		-1.143174499		-1.274243418		-0.99534888
F		-0.116995644		-1.015437766		-3.219291774
F		0.504348945		0.397219905		-0.041933435
F		1.076093382		-2.069693025		-0.064352885
