12
-185.77729729
Al		0.273201944		-2.332517085		-1.828735563
Al		2.031492958		-0.543982196		-0.809283142
Al		-0.336843261		0.306129397		-1.803158854
F		3.616500058		-0.181948545		-0.035793348
F		-0.169741082		-4.043421399		-2.23222186
F		2.111254128		-1.802510016		-2.283597556
F		1.530192049		0.651273768		-2.256582932
F		-1.481837663		1.650728284		-2.175011579
F		-1.149178331		-1.266922923		-0.991206381
F		-0.118438942		-1.006967078		-3.225032912
F		0.510558741		0.394118913		-0.046825576
F		1.084414309		-2.061482334		-0.058222232
