12
-185.77729729
Al		0.272996618		-2.332912068		-1.828876272
Al		2.031209884		-0.544249985		-0.809444923
Al		-0.336989913		0.305866411		-1.803257128
F		3.615739714		-0.18211848		-0.036163965
F		-0.169997768		-4.044415326		-2.232455968
F		2.112156642		-1.801690905		-2.283215053
F		1.530254392		0.650837835		-2.255889095
F		-1.481714243		1.650589468		-2.174970785
F		-1.149759347		-1.266214488		-0.990805494
F		-0.118578616		-1.006147334		-3.225588506
F		0.511159689		0.393818817		-0.047299009
F		1.08521956		-2.060687751		-0.057628943
