12
-185.77729729
Al		0.272928176		-2.333043729		-1.828923175
Al		2.031115526		-0.544339248		-0.80949885
Al		-0.337038797		0.305778749		-1.803289886
F		3.615486266		-0.182175125		-0.036287504
F		-0.17008333		-4.044746635		-2.232534004
F		2.11245748		-1.801417868		-2.283087552
F		1.530275173		0.650692524		-2.255657816
F		-1.481673103		1.650543196		-2.174957187
F		-1.149953019		-1.265978343		-0.990671865
F		-0.118625174		-1.005874086		-3.225773704
F		0.511360005		0.393718785		-0.04745682
F		1.085487977		-2.06042289		-0.05743118
