12
-185.77729729
Al		0.275255204		-2.328567255		-1.827328473
Al		2.034323698		-0.541304306		-0.807665332
Al		-0.335376741		0.308759257		-1.802176114
F		3.624103498		-0.180249195		-0.032087178
F		-0.167174222		-4.033482129		-2.22988078
F		2.102228988		-1.810701126		-2.287422586
F		1.529568619		0.655633098		-2.263521302
F		-1.483071863		1.652116444		-2.175419519
F		-1.143368171		-1.274007273		-0.995215251
F		-0.117042202		-1.015164518		-3.219476972
F		0.504549261		0.397119873		-0.042091246
F		1.076361799		-2.069428164		-0.064155122
