12
-185.77729729
Al		0.272791292		-2.333307051		-1.829016981
Al		2.03092681		-0.544517774		-0.809606704
Al		-0.337136565		0.305603425		-1.803355402
F		3.61497937		-0.182288415		-0.036534582
F		-0.170254454		-4.045409253		-2.232690076
F		2.113059156		-1.800871794		-2.28283255
F		1.530316735		0.650401902		-2.255195258
F		-1.481590823		1.650450652		-2.174929991
F		-1.150340363		-1.265506053		-0.990404607
F		-0.11871829		-1.00532759		-3.2261441
F		0.511760637		0.393518721		-0.047772442
F		1.086024811		-2.059893168		-0.057035654
