12
-185.77729729
Al		0.272175314		-2.334492		-1.829439108
Al		2.030077588		-0.545321141		-0.810092047
Al		-0.337576521		0.304814467		-1.803650224
F		3.612698338		-0.18279822		-0.037646433
F		-0.171024512		-4.048391034		-2.2333924
F		2.115766698		-1.798414461		-2.281685041
F		1.530503764		0.649094103		-2.253113747
F		-1.481220563		1.650034204		-2.174807609
F		-1.152083411		-1.263380748		-0.989201946
F		-0.119137312		-1.002868358		-3.227810882
F		0.513563481		0.392618433		-0.049192741
F		1.088440564		-2.057509419		-0.055255787
