12
-185.77729729
Al		0.27203843		-2.334755322		-1.829532914
Al		2.029888872		-0.545499667		-0.810199901
Al		-0.337674289		0.304639143		-1.80371574
F		3.612191442		-0.18291151		-0.037893511
F		-0.171195636		-4.049053652		-2.233548472
F		2.116368374		-1.797868387		-2.281430039
F		1.530545326		0.648803481		-2.252651189
F		-1.481138283		1.64994166		-2.174780413
F		-1.152470755		-1.262908458		-0.988934688
F		-0.119230428		-1.002321862		-3.228181278
F		0.513964113		0.392418369		-0.049508363
F		1.088977398		-2.056979697		-0.054860261
