12
-185.77729729
Al		0.271969988		-2.334886983		-1.829579817
Al		2.029794514		-0.54558893		-0.810253828
Al		-0.337723173		0.304551481		-1.803748498
F		3.611937994		-0.182968155		-0.03801705
F		-0.171281198		-4.049384961		-2.233626508
F		2.116669212		-1.79759535		-2.281302538
F		1.530566107		0.64865817		-2.25241991
F		-1.481097143		1.649895388		-2.174766815
F		-1.152664427		-1.262672313		-0.988801059
F		-0.119276986		-1.002048614		-3.228366476
F		0.514164429		0.392318337		-0.049666174
F		1.089245815		-2.056714836		-0.054662498
