12
-185.77729729
Al		0.271833104		-2.335150305		-1.829673623
Al		2.029605798		-0.545767456		-0.810361682
Al		-0.337820941		0.304376157		-1.803814014
F		3.611431098		-0.183081445		-0.038264128
F		-0.171452322		-4.050047579		-2.23378258
F		2.117270888		-1.797049276		-2.281047536
F		1.530607669		0.648367548		-2.251957352
F		-1.481014863		1.649802844		-2.174739619
F		-1.153051771		-1.262200023		-0.988533801
F		-0.119370102		-1.001502118		-3.228736872
F		0.514565061		0.392118273		-0.049981796
F		1.089782649		-2.056185114		-0.054266972
