12
-185.77729729
Al		0.27169622		-2.335413627		-1.829767429
Al		2.029417082		-0.545945982		-0.810469536
Al		-0.337918709		0.304200833		-1.80387953
F		3.610924202		-0.183194735		-0.038511206
F		-0.171623446		-4.050710197		-2.233938652
F		2.117872564		-1.796503202		-2.280792534
F		1.530649231		0.648076926		-2.251494794
F		-1.480932583		1.6497103		-2.174712423
F		-1.153439115		-1.261727733		-0.988266543
F		-0.119463218		-1.000955622		-3.229107268
F		0.514965693		0.391918209		-0.050297418
F		1.090319483		-2.055655392		-0.053871446
