12
-185.77729729
Al		0.271627778		-2.335545288		-1.829814332
Al		2.029322724		-0.546035245		-0.810523463
Al		-0.337967593		0.304113171		-1.803912288
F		3.610670754		-0.18325138		-0.038634745
F		-0.171709008		-4.051041506		-2.234016688
F		2.118173402		-1.796230165		-2.280665033
F		1.530670012		0.647931615		-2.251263515
F		-1.480891443		1.649664028		-2.174698825
F		-1.153632787		-1.261491588		-0.988132914
F		-0.119509776		-1.000682374		-3.229292466
F		0.515166009		0.391818177		-0.050455229
F		1.0905879		-2.055390531		-0.053673683
