12
-185.77729729
Al		0.271559336		-2.335676949		-1.829861235
Al		2.029228366		-0.546124508		-0.81057739
Al		-0.338016477		0.304025509		-1.803945046
F		3.610417306		-0.183308025		-0.038758284
F		-0.17179457		-4.051372815		-2.234094724
F		2.11847424		-1.795957128		-2.280537532
F		1.530690793		0.647786304		-2.251032236
F		-1.480850303		1.649617756		-2.174685227
F		-1.153826459		-1.261255443		-0.987999285
F		-0.119556334		-1.000409126		-3.229477664
F		0.515366325		0.391718145		-0.05061304
F		1.090856317		-2.05512567		-0.05347592
