12
-185.77729729
Al		0.271422452		-2.335940271		-1.829955041
Al		2.02903965		-0.546303034		-0.810685244
Al		-0.338114245		0.303850185		-1.804010562
F		3.60991041		-0.183421315		-0.039005362
F		-0.171965694		-4.052035433		-2.234250796
F		2.119075916		-1.795411054		-2.28028253
F		1.530732355		0.647495682		-2.250569678
F		-1.480768023		1.649525212		-2.174658031
F		-1.154213803		-1.260783153		-0.987732027
F		-0.11964945		-0.99986263		-3.22984806
F		0.515766957		0.391518081		-0.050928662
F		1.091393151		-2.054595948		-0.053080394
