12
-185.77729729
Al		0.271285568		-2.336203593		-1.830048847
Al		2.028850934		-0.54648156		-0.810793098
Al		-0.338212013		0.303674861		-1.804076078
F		3.609403514		-0.183534605		-0.03925244
F		-0.172136818		-4.052698051		-2.234406868
F		2.119677592		-1.79486498		-2.280027528
F		1.530773917		0.64720506		-2.25010712
F		-1.480685743		1.649432668		-2.174630835
F		-1.154601147		-1.260310863		-0.987464769
F		-0.119742566		-0.999316134		-3.230218456
F		0.516167589		0.391318017		-0.051244284
F		1.091929985		-2.054066226		-0.052684868
