12
-185.77729729
Al		0.271148684		-2.336466915		-1.830142653
Al		2.028662218		-0.546660086		-0.810900952
Al		-0.338309781		0.303499537		-1.804141594
F		3.608896618		-0.183647895		-0.039499518
F		-0.172307942		-4.053360669		-2.23456294
F		2.120279268		-1.794318906		-2.279772526
F		1.530815479		0.646914438		-2.249644562
F		-1.480603463		1.649340124		-2.174603639
F		-1.154988491		-1.259838573		-0.987197511
F		-0.119835682		-0.998769638		-3.230588852
F		0.516568221		0.391117953		-0.051559906
F		1.092466819		-2.053536504		-0.052289342
