12
-185.77729729
Al		0.270943358		-2.336861898		-1.830283362
Al		2.028379144		-0.546927875		-0.811062733
Al		-0.338456433		0.303236551		-1.804239868
F		3.608136274		-0.18381783		-0.039870135
F		-0.172564628		-4.054354596		-2.234797048
F		2.121181782		-1.793499795		-2.279390023
F		1.530877822		0.646478505		-2.248950725
F		-1.480480043		1.649201308		-2.174562845
F		-1.155569507		-1.259130138		-0.986796624
F		-0.119975356		-0.997949894		-3.231144446
F		0.517169169		0.390817857		-0.052033339
F		1.09327207		-2.052741921		-0.051696053
