12
-185.77729729
Al		0.270532706		-2.337651864		-1.83056478
Al		2.027812996		-0.547463453		-0.811386295
Al		-0.338749737		0.302710579		-1.804436416
F		3.606615586		-0.1841577		-0.040611369
F		-0.173078		-4.05634245		-2.235265264
F		2.12298681		-1.791861573		-2.278625017
F		1.531002508		0.645606639		-2.247563051
F		-1.480233203		1.648923676		-2.174481257
F		-1.156731539		-1.257713268		-0.98599485
F		-0.120254704		-0.996310406		-3.232255634
F		0.518371065		0.390217665		-0.052980205
F		1.094882572		-2.051152755		-0.050509475
