12
-185.77729729
Al		0.270395822		-2.337915186		-1.830658586
Al		2.02762428		-0.547641979		-0.811494149
Al		-0.338847505		0.302535255		-1.804501932
F		3.60610869		-0.18427099		-0.040858447
F		-0.173249124		-4.057005068		-2.235421336
F		2.123588486		-1.791315499		-2.278370015
F		1.53104407		0.645316017		-2.247100493
F		-1.480150923		1.648831132		-2.174454061
F		-1.157118883		-1.257240978		-0.985727592
F		-0.12034782		-0.99576391		-3.23262603
F		0.518771697		0.390017601		-0.053295827
F		1.095419406		-2.050623033		-0.050113949
