12
-185.77729729
Al		0.27032738		-2.338046847		-1.830705489
Al		2.027529922		-0.547731242		-0.811548076
Al		-0.338896389		0.302447593		-1.80453469
F		3.605855242		-0.184327635		-0.040981986
F		-0.173334686		-4.057336377		-2.235499372
F		2.123889324		-1.791042462		-2.278242514
F		1.531064851		0.645170706		-2.246869214
F		-1.480109783		1.64878486		-2.174440463
F		-1.157312555		-1.257004833		-0.985593963
F		-0.120394378		-0.995490662		-3.232811228
F		0.518972013		0.389917569		-0.053453638
F		1.095687823		-2.050358172		-0.049916186
