12
-185.77729729
Al		0.270190496		-2.338310169		-1.830799295
Al		2.027341206		-0.547909768		-0.81165593
Al		-0.338994157		0.302272269		-1.804600206
F		3.605348346		-0.184440925		-0.041229064
F		-0.17350581		-4.057998995		-2.235655444
F		2.124491		-1.790496388		-2.277987512
F		1.531106413		0.644880084		-2.246406656
F		-1.480027503		1.648692316		-2.174413267
F		-1.157699899		-1.256532543		-0.985326705
F		-0.120487494		-0.994944166		-3.233181624
F		0.519372645		0.389717505		-0.05376926
F		1.096224657		-2.04982845		-0.04952066
