12
-185.77729729
Al		0.274981436		-2.329093899		-1.827516085
Al		2.033946266		-0.541661358		-0.80788104
Al		-0.335572277		0.308408609		-1.802307146
F		3.623089706		-0.180475775		-0.032581334
F		-0.16751647		-4.034807365		-2.230192924
F		2.10343234		-1.809608978		-2.286912582
F		1.529651743		0.655051854		-2.262596186
F		-1.482907303		1.651931356		-2.175365127
F		-1.144142859		-1.273062693		-0.994680735
F		-0.117228434		-1.014071526		-3.220217764
F		0.505350525		0.396719745		-0.04272249
F		1.077435467		-2.06836872		-0.06336407
