12
-185.77729729
Al		0.26998517		-2.338705152		-1.830940004
Al		2.027058132		-0.548177557		-0.811817711
Al		-0.339140809		0.302009283		-1.80469848
F		3.604588002		-0.18461086		-0.041599681
F		-0.173762496		-4.058992922		-2.235889552
F		2.125393514		-1.789677277		-2.277605009
F		1.531168756		0.644444151		-2.245712819
F		-1.479904083		1.6485535		-2.174372473
F		-1.158280915		-1.255824108		-0.984925818
F		-0.120627168		-0.994124422		-3.233737218
F		0.519973593		0.389417409		-0.054242693
F		1.097029908		-2.049033867		-0.048927371
