12
-185.77729729
Al		0.269916728		-2.338836813		-1.830986907
Al		2.026963774		-0.54826682		-0.811871638
Al		-0.339189693		0.301921621		-1.804731238
F		3.604334554		-0.184667505		-0.04172322
F		-0.173848058		-4.059324231		-2.235967588
F		2.125694352		-1.78940424		-2.277477508
F		1.531189537		0.64429884		-2.24548154
F		-1.479862943		1.648507228		-2.174358875
F		-1.158474587		-1.255587963		-0.984792189
F		-0.120673726		-0.993851174		-3.233922416
F		0.520173909		0.389317377		-0.054400504
F		1.097298325		-2.048769006		-0.048729608
