12
-185.77729729
Al		0.26964296		-2.339363457		-1.831174519
Al		2.026586342		-0.548623872		-0.812087346
Al		-0.339385229		0.301570973		-1.80486227
F		3.603320762		-0.184894085		-0.042217376
F		-0.174190306		-4.060649467		-2.236279732
F		2.126897704		-1.788312092		-2.276967504
F		1.531272661		0.643717596		-2.244556424
F		-1.479698383		1.64832214		-2.174304483
F		-1.159249275		-1.254643383		-0.984257673
F		-0.120859958		-0.992758182		-3.234663208
F		0.520975173		0.388917249		-0.055031748
F		1.098371993		-2.047709562		-0.047938556
