12
-185.77729729
Al		0.269574518		-2.339495118		-1.831221422
Al		2.026491984		-0.548713135		-0.812141273
Al		-0.339434113		0.301483311		-1.804895028
F		3.603067314		-0.18495073		-0.042340915
F		-0.174275868		-4.060980776		-2.236357768
F		2.127198542		-1.788039055		-2.276840003
F		1.531293442		0.643572285		-2.244325145
F		-1.479657243		1.648275868		-2.174290885
F		-1.159442947		-1.254407238		-0.984124044
F		-0.120906516		-0.992484934		-3.234848406
F		0.521175489		0.388817217		-0.055189559
F		1.09864041		-2.047444701		-0.047740793
