12
-185.77729729
Al		0.269506076		-2.339626779		-1.831268325
Al		2.026397626		-0.548802398		-0.8121952
Al		-0.339482997		0.301395649		-1.804927786
F		3.602813866		-0.185007375		-0.042464454
F		-0.17436143		-4.061312085		-2.236435804
F		2.12749938		-1.787766018		-2.276712502
F		1.531314223		0.643426974		-2.244093866
F		-1.479616103		1.648229596		-2.174277287
F		-1.159636619		-1.254171093		-0.983990415
F		-0.120953074		-0.992211686		-3.235033604
F		0.521375805		0.388717185		-0.05534737
F		1.098908827		-2.04717984		-0.04754303
