12
-185.77729729
Al		0.269369192		-2.339890101		-1.831362131
Al		2.02620891		-0.548980924		-0.812303054
Al		-0.339580765		0.301220325		-1.804993302
F		3.60230697		-0.185120665		-0.042711532
F		-0.174532554		-4.061974703		-2.236591876
F		2.128101056		-1.787219944		-2.2764575
F		1.531355785		0.643136352		-2.243631308
F		-1.479533823		1.648137052		-2.174250091
F		-1.160023963		-1.253698803		-0.983723157
F		-0.12104619		-0.99166519		-3.235404
F		0.521776437		0.388517121		-0.055662992
F		1.099445661		-2.046650118		-0.047147504
