12
-185.77729729
Al		0.269163866		-2.340285084		-1.83150284
Al		2.025925836		-0.549248713		-0.812464835
Al		-0.339727417		0.300957339		-1.805091576
F		3.601546626		-0.1852906		-0.043082149
F		-0.17478924		-4.06296863		-2.236825984
F		2.12900357		-1.786400833		-2.276074997
F		1.531418128		0.642700419		-2.242937471
F		-1.479410403		1.647998236		-2.174209297
F		-1.160604979		-1.252990368		-0.98332227
F		-0.121185864		-0.990845446		-3.235959594
F		0.522377385		0.388217025		-0.056136425
F		1.100250912		-2.045855535		-0.046554215
