12
-185.77729729
Al		0.268821656		-2.340943389		-1.831737355
Al		2.025454046		-0.549695028		-0.81273447
Al		-0.339971837		0.300519029		-1.805255366
F		3.600279386		-0.185573825		-0.043699844
F		-0.17521705		-4.064625175		-2.237216164
F		2.13050776		-1.785035648		-2.275437492
F		1.531522033		0.641973864		-2.241781076
F		-1.479204703		1.647766876		-2.174141307
F		-1.161573339		-1.251809643		-0.982654125
F		-0.121418654		-0.989479206		-3.236885584
F		0.523378965		0.387716865		-0.05692548
F		1.101592997		-2.04453123		-0.0455654
