12
-185.77729729
Al		0.276281834		-2.32659234		-1.826624928
Al		2.035739068		-0.539965361		-0.806856427
Al		-0.334643481		0.310074187		-1.801684744
F		3.627905218		-0.17939952		-0.030234093
F		-0.165890792		-4.028512494		-2.22871024
F		2.097716418		-1.814796681		-2.289335101
F		1.529256904		0.657812763		-2.266990487
F		-1.483688963		1.652810524		-2.175623489
F		-1.140463091		-1.277549448		-0.997219686
F		-0.116343832		-1.019263238		-3.216699002
F		0.501544521		0.398620353		-0.039724081
F		1.072335544		-2.073401079		-0.067121567
