12
-185.77729729
Al		0.276624044		-2.325934035		-1.826390413
Al		2.036210858		-0.539519046		-0.806586792
Al		-0.334399061		0.310512497		-1.801520954
F		3.629172458		-0.179116295		-0.029616398
F		-0.165462982		-4.026855949		-2.22832006
F		2.096212228		-1.816161866		-2.289972606
F		1.529152999		0.658539318		-2.268146882
F		-1.483894663		1.653041884		-2.175691479
F		-1.139494731		-1.278730173		-0.997887831
F		-0.116111042		-1.020629478		-3.215773012
F		0.500542941		0.399120513		-0.038935026
F		1.070993459		-2.074725384		-0.068110382
