12
-185.77729729
Al		0.276897812		-2.325407391		-1.826202801
Al		2.03658829		-0.539161994		-0.806371084
Al		-0.334203525		0.310863145		-1.801389922
F		3.63018625		-0.178889715		-0.029122242
F		-0.165120734		-4.025530713		-2.228007916
F		2.095008876		-1.817254014		-2.29048261
F		1.529069875		0.659120562		-2.269071998
F		-1.484059223		1.653226972		-2.175745871
F		-1.138720043		-1.279674753		-0.998422347
F		-0.11592481		-1.02172247		-3.21503222
F		0.499741677		0.399520641		-0.038303782
F		1.069919791		-2.075784828		-0.068901434
