12
-185.77729729
Al		0.277308464		-2.324617425		-1.825921383
Al		2.037154438		-0.538626416		-0.806047522
Al		-0.333910221		0.311389117		-1.801193374
F		3.631706938		-0.178549845		-0.028381008
F		-0.164607362		-4.023542859		-2.2275397
F		2.093203848		-1.818892236		-2.291247616
F		1.528945189		0.659992428		-2.270459672
F		-1.484306063		1.653504604		-2.175827459
F		-1.137558011		-1.281091623		-0.999224121
F		-0.115645462		-1.023361958		-3.213921032
F		0.498539781		0.400120833		-0.037356916
F		1.068309289		-2.077373994		-0.070088012
