12
-185.77729729
Al		0.277376906		-2.324485764		-1.82587448
Al		2.037248796		-0.538537153		-0.805993595
Al		-0.333861337		0.311476779		-1.801160616
F		3.631960386		-0.1784932		-0.028257469
F		-0.1645218		-4.02321155		-2.227461664
F		2.09290301		-1.819165273		-2.291375117
F		1.528924408		0.660137739		-2.270690951
F		-1.484347203		1.653550876		-2.175841057
F		-1.137364339		-1.281327768		-0.99935775
F		-0.115598904		-1.023635206		-3.213735834
F		0.498339465		0.400220865		-0.037199105
F		1.068040872		-2.077638855		-0.070285775
