12
-185.77729729
Al		0.27751379		-2.324222442		-1.825780674
Al		2.037437512		-0.538358627		-0.805885741
Al		-0.333763569		0.311652103		-1.8010951
F		3.632467282		-0.17837991		-0.028010391
F		-0.164350676		-4.022548932		-2.227305592
F		2.092301334		-1.819711347		-2.291630119
F		1.528882846		0.660428361		-2.271153509
F		-1.484429483		1.65364342		-2.175868253
F		-1.136976995		-1.281800058		-0.999625008
F		-0.115505788		-1.024181702		-3.213365438
F		0.497938833		0.400420929		-0.036883483
F		1.067504038		-2.078168577		-0.070681301
