12
-185.77729729
Al		0.277650674		-2.32395912		-1.825686868
Al		2.037626228		-0.538180101		-0.805777887
Al		-0.333665801		0.311827427		-1.801029584
F		3.632974178		-0.17826662		-0.027763313
F		-0.164179552		-4.021886314		-2.22714952
F		2.091699658		-1.820257421		-2.291885121
F		1.528841284		0.660718983		-2.271616067
F		-1.484511763		1.653735964		-2.175895449
F		-1.136589651		-1.282272348		-0.999892266
F		-0.115412672		-1.024728198		-3.212995042
F		0.497538201		0.400620993		-0.036567861
F		1.066967204		-2.078698299		-0.071076827
