12
-185.77729729
Al		0.278061326		-2.323169154		-1.82540545
Al		2.038192376		-0.537644523		-0.805454325
Al		-0.333372497		0.312353399		-1.800833036
F		3.634494866		-0.17792675		-0.027022079
F		-0.16366618		-4.01989846		-2.226681304
F		2.08989463		-1.821895643		-2.292650127
F		1.528716598		0.661590849		-2.273003741
F		-1.484758603		1.654013596		-2.175977037
F		-1.135427619		-1.283689218		-1.00069404
F		-0.115133324		-1.026367686		-3.211883854
F		0.496336305		0.401221185		-0.035620995
F		1.065356702		-2.080287465		-0.072263405
