12
-185.77729729
Al		0.278129768		-2.323037493		-1.825358547
Al		2.038286734		-0.53755526		-0.805400398
Al		-0.333323613		0.312441061		-1.800800278
F		3.634748314		-0.177870105		-0.02689854
F		-0.163580618		-4.019567151		-2.226603268
F		2.089593792		-1.82216868		-2.292777628
F		1.528695817		0.66173616		-2.27323502
F		-1.484799743		1.654059868		-2.175990635
F		-1.135233947		-1.283925363		-1.000827669
F		-0.115086766		-1.026640934		-3.211698656
F		0.496135989		0.401321217		-0.035463184
F		1.065088285		-2.080552326		-0.072461168
