12
-185.77729729
Al		0.278335094		-2.32264251		-1.825217838
Al		2.038569808		-0.537287471		-0.805238617
Al		-0.333176961		0.312704047		-1.800702004
F		3.635508658		-0.17770017		-0.026527923
F		-0.163323932		-4.018573224		-2.22636916
F		2.088691278		-1.822987791		-2.293160131
F		1.528633474		0.662172093		-2.273928857
F		-1.484923163		1.654198684		-2.176031429
F		-1.134652931		-1.284633798		-1.001228556
F		-0.114947092		-1.027460678		-3.211143062
F		0.495535041		0.401621313		-0.034989751
F		1.064283034		-2.081346909		-0.073054457
