12
-185.77729729
Al		0.27854042		-2.322247527		-1.825077129
Al		2.038852882		-0.537019682		-0.805076836
Al		-0.333030309		0.312967033		-1.80060373
F		3.636269002		-0.177530235		-0.026157306
F		-0.163067246		-4.017579297		-2.226135052
F		2.087788764		-1.823806902		-2.293542634
F		1.528571131		0.662608026		-2.274622694
F		-1.485046583		1.6543375		-2.176072223
F		-1.134071915		-1.285342233		-1.001629443
F		-0.114807418		-1.028280422		-3.210587468
F		0.494934093		0.401921409		-0.034516318
F		1.063477783		-2.082141492		-0.073647746
