12
-185.77729729
Al		0.27888263		-2.321589222		-1.824842614
Al		2.039324672		-0.536573367		-0.804807201
Al		-0.332785889		0.313405343		-1.80043994
F		3.637536242		-0.17724701		-0.025539611
F		-0.162639436		-4.015922752		-2.225744872
F		2.086284574		-1.825172087		-2.294180139
F		1.528467226		0.663334581		-2.275779089
F		-1.485252283		1.65456886		-2.176140213
F		-1.133103555		-1.286522958		-1.002297588
F		-0.114574628		-1.029646662		-3.209661478
F		0.493932513		0.402421569		-0.033727263
F		1.062135698		-2.083465797		-0.074636561
