12
-185.77729729
Al		0.275871182		-2.327382306		-1.826906346
Al		2.03517292		-0.540500939		-0.807179989
Al		-0.334936785		0.309548215		-1.801881292
F		3.62638453		-0.17973939		-0.030975327
F		-0.166404164		-4.030500348		-2.229178456
F		2.099521446		-1.813158459		-2.288570095
F		1.52938159		0.656940897		-2.265602813
F		-1.483442123		1.652532892		-2.175541901
F		-1.141625123		-1.276132578		-0.996417912
F		-0.11662318		-1.01762375		-3.21781019
F		0.502746417		0.398020161		-0.040670947
F		1.073946046		-2.071811913		-0.065934989
