12
-185.77729729
Al		0.279156398		-2.321062578		-1.824655002
Al		2.039702104		-0.536216315		-0.804591493
Al		-0.332590353		0.313755991		-1.800308908
F		3.638550034		-0.17702043		-0.025045455
F		-0.162297188		-4.014597516		-2.225432728
F		2.085081222		-1.826264235		-2.294690143
F		1.528384102		0.663915825		-2.276704205
F		-1.485416843		1.654753948		-2.176194605
F		-1.132328867		-1.287467538		-1.002832104
F		-0.114388396		-1.030739654		-3.208920686
F		0.493131249		0.402821697		-0.033096019
F		1.06106203		-2.084525241		-0.075427613
