12
-185.77729729
Al		0.279430166		-2.320535934		-1.82446739
Al		2.040079536		-0.535859263		-0.804375785
Al		-0.332394817		0.314106639		-1.800177876
F		3.639563826		-0.17679385		-0.024551299
F		-0.16195494		-4.01327228		-2.225120584
F		2.08387787		-1.827356383		-2.295200147
F		1.528300978		0.664497069		-2.277629321
F		-1.485581403		1.654939036		-2.176248997
F		-1.131554179		-1.288412118		-1.00336662
F		-0.114202164		-1.031832646		-3.208179894
F		0.492329985		0.403221825		-0.032464775
F		1.059988362		-2.085584685		-0.076218665
