12
-185.77729729
Al		0.275939624		-2.327250645		-1.826859443
Al		2.035267278		-0.540411676		-0.807126062
Al		-0.334887901		0.309635877		-1.801848534
F		3.626637978		-0.179682745		-0.030851788
F		-0.166318602		-4.030169039		-2.22910042
F		2.099220608		-1.813431496		-2.288697596
F		1.529360809		0.657086208		-2.265834092
F		-1.483483263		1.652579164		-2.175555499
F		-1.141431451		-1.276368723		-0.996551541
F		-0.116576622		-1.017896998		-3.217624992
F		0.502546101		0.398120193		-0.040513136
F		1.073677629		-2.072076774		-0.066132752
