12
-185.77729729
Al		0.279840818		-2.319745968		-1.824185972
Al		2.040645684		-0.535323685		-0.804052223
Al		-0.332101513		0.314632611		-1.799981328
F		3.641084514		-0.17645398		-0.023810065
F		-0.161441568		-4.011284426		-2.224652368
F		2.082072842		-1.828994605		-2.295965153
F		1.528176292		0.665368935		-2.279016995
F		-1.485828243		1.655216668		-2.176330585
F		-1.130392147		-1.289828988		-1.004168394
F		-0.113922816		-1.033472134		-3.207068706
F		0.491128089		0.403822017		-0.031517909
F		1.05837786		-2.087173851		-0.077405243
