12
-185.77729729
Al		0.27990926		-2.319614307		-1.824139069
Al		2.040740042		-0.535234422		-0.803998296
Al		-0.332052629		0.314720273		-1.79994857
F		3.641337962		-0.176397335		-0.023686526
F		-0.161356006		-4.010953117		-2.224574332
F		2.081772004		-1.829267642		-2.296092654
F		1.528155511		0.665514246		-2.279248274
F		-1.485869383		1.65526294		-2.176344183
F		-1.130198475		-1.290065133		-1.004302023
F		-0.113876258		-1.033745382		-3.206883508
F		0.490927773		0.403922049		-0.031360098
F		1.058109443		-2.087438712		-0.077603006
