12
-185.77729729
Al		0.279977702		-2.319482646		-1.824092166
Al		2.0408344		-0.535145159		-0.803944369
Al		-0.332003745		0.314807935		-1.799915812
F		3.64159141		-0.17634069		-0.023562987
F		-0.161270444		-4.010621808		-2.224496296
F		2.081471166		-1.829540679		-2.296220155
F		1.52813473		0.665659557		-2.279479553
F		-1.485910523		1.655309212		-2.176357781
F		-1.130004803		-1.290301278		-1.004435652
F		-0.1138297		-1.03401863		-3.20669831
F		0.490727457		0.404022081		-0.031202287
F		1.057841026		-2.087703573		-0.077800769
