12
-185.77729729
Al		0.276008066		-2.327118984		-1.82681254
Al		2.035361636		-0.540322413		-0.807072135
Al		-0.334839017		0.309723539		-1.801815776
F		3.626891426		-0.1796261		-0.030728249
F		-0.16623304		-4.02983773		-2.229022384
F		2.09891977		-1.813704533		-2.288825097
F		1.529340028		0.657231519		-2.266065371
F		-1.483524403		1.652625436		-2.175569097
F		-1.141237779		-1.276604868		-0.99668517
F		-0.116530064		-1.018170246		-3.217439794
F		0.502345785		0.398220225		-0.040355325
F		1.073409212		-2.072341635		-0.066330515
