12
-185.77729729
Al		0.280456796		-2.318561019		-1.823763845
Al		2.041494906		-0.534520318		-0.80356688
Al		-0.331661557		0.315421569		-1.799686506
F		3.643365546		-0.175944175		-0.022698214
F		-0.16067151		-4.008302645		-2.223950044
F		2.0793653		-1.831451938		-2.297112662
F		1.527989263		0.666676734		-2.281098506
F		-1.486198503		1.655633116		-2.176452967
F		-1.128649099		-1.291954293		-1.005371055
F		-0.113503794		-1.035931366		-3.205401924
F		0.489325245		0.404722305		-0.03009761
F		1.055962107		-2.0895576		-0.07918511
