12
-185.77729729
Al		0.280525238		-2.318429358		-1.823716942
Al		2.041589264		-0.534431055		-0.803512953
Al		-0.331612673		0.315509231		-1.799653748
F		3.643618994		-0.17588753		-0.022574675
F		-0.160585948		-4.007971336		-2.223872008
F		2.079064462		-1.831724975		-2.297240163
F		1.527968482		0.666822045		-2.281329785
F		-1.486239643		1.655679388		-2.176466565
F		-1.128455427		-1.292190438		-1.005504684
F		-0.113457236		-1.036204614		-3.205216726
F		0.489124929		0.404822337		-0.029939799
F		1.05569369		-2.089822461		-0.079382873
