12
-185.77729729
Al		0.280662122		-2.318166036		-1.823623136
Al		2.04177798		-0.534252529		-0.803405099
Al		-0.331514905		0.315684555		-1.799588232
F		3.64412589		-0.17577424		-0.022327597
F		-0.160414824		-4.007308718		-2.223715936
F		2.078462786		-1.832271049		-2.297495165
F		1.52792692		0.667112667		-2.281792343
F		-1.486321923		1.655771932		-2.176493761
F		-1.128068083		-1.292662728		-1.005771942
F		-0.11336412		-1.03675111		-3.20484633
F		0.488724297		0.405022401		-0.029624177
F		1.055156856		-2.090352183		-0.079778399
