12
-185.77729729
Al		0.280730564		-2.318034375		-1.823576233
Al		2.041872338		-0.534163266		-0.803351172
Al		-0.331466021		0.315772217		-1.799555474
F		3.644379338		-0.175717595		-0.022204058
F		-0.160329262		-4.006977409		-2.2236379
F		2.078161948		-1.832544086		-2.297622666
F		1.527906139		0.667257978		-2.282023622
F		-1.486363063		1.655818204		-2.176507359
F		-1.127874411		-1.292898873		-1.005905571
F		-0.113317562		-1.037024358		-3.204661132
F		0.488523981		0.405122433		-0.029466366
F		1.054888439		-2.090617044		-0.079976162
