12
-185.77729729
Al		0.280799006		-2.317902714		-1.82352933
Al		2.041966696		-0.534074003		-0.803297245
Al		-0.331417137		0.315859879		-1.799522716
F		3.644632786		-0.17566095		-0.022080519
F		-0.1602437		-4.0066461		-2.223559864
F		2.07786111		-1.832817123		-2.297750167
F		1.527885358		0.667403289		-2.282254901
F		-1.486404203		1.655864476		-2.176520957
F		-1.127680739		-1.293135018		-1.0060392
F		-0.113271004		-1.037297606		-3.204475934
F		0.488323665		0.405222465		-0.029308555
F		1.054620022		-2.090881905		-0.080173925
