12
-185.77729729
Al		0.281072774		-2.31737607		-1.823341718
Al		2.042344128		-0.533716951		-0.803081537
Al		-0.331221601		0.316210527		-1.799391684
F		3.645646578		-0.17543437		-0.021586363
F		-0.159901452		-4.005320864		-2.22324772
F		2.076657758		-1.833909271		-2.298260171
F		1.527802234		0.667984533		-2.283180017
F		-1.486568763		1.656049564		-2.176575349
F		-1.126906051		-1.294079598		-1.006573716
F		-0.113084772		-1.038390598		-3.203735142
F		0.487522401		0.405622593		-0.028677311
F		1.053546354		-2.091941349		-0.080964977
