12
-185.77729729
Al		0.281209658		-2.317112748		-1.823247912
Al		2.042532844		-0.533538425		-0.802973683
Al		-0.331123833		0.316385851		-1.799326168
F		3.646153474		-0.17532108		-0.021339285
F		-0.159730328		-4.004658246		-2.223091648
F		2.076056082		-1.834455345		-2.298515173
F		1.527760672		0.668275155		-2.283642575
F		-1.486651043		1.656142108		-2.176602545
F		-1.126518707		-1.294551888		-1.006840974
F		-0.112991656		-1.038937094		-3.203364746
F		0.487121769		0.405822657		-0.028361689
F		1.05300952		-2.092471071		-0.081360503
