12
-185.77729729
Al		0.281483426		-2.316586104		-1.8230603
Al		2.042910276		-0.533181373		-0.802757975
Al		-0.330928297		0.316736499		-1.799195136
F		3.647167266		-0.1750945		-0.020845129
F		-0.15938808		-4.00333301		-2.222779504
F		2.07485273		-1.835547493		-2.299025177
F		1.527677548		0.668856399		-2.284567691
F		-1.486815603		1.656327196		-2.176656937
F		-1.125744019		-1.295496468		-1.00737549
F		-0.112805424		-1.040030086		-3.202623954
F		0.486320505		0.406222785		-0.027730445
F		1.051935852		-2.093530515		-0.082151555
