12
-185.77729729
Al		0.27614495		-2.326855662		-1.826718734
Al		2.035550352		-0.540143887		-0.806964281
Al		-0.334741249		0.309898863		-1.80175026
F		3.627398322		-0.17951281		-0.030481171
F		-0.166061916		-4.029175112		-2.228866312
F		2.098318094		-1.814250607		-2.289080099
F		1.529298466		0.657522141		-2.266527929
F		-1.483606683		1.65271798		-2.175596293
F		-1.140850435		-1.277077158		-0.996952428
F		-0.116436948		-1.018716742		-3.217069398
F		0.501945153		0.398420289		-0.040039703
F		1.072872378		-2.072871357		-0.066726041
