12
-185.77729729
Al		0.282167846		-2.315269494		-1.82259127
Al		2.043853856		-0.532288743		-0.802218705
Al		-0.330439457		0.317613119		-1.798867556
F		3.649701746		-0.17452805		-0.019609739
F		-0.15853246		-4.00001992		-2.221999144
F		2.07184435		-1.838277863		-2.300300187
F		1.527469738		0.670309509		-2.286880481
F		-1.487227003		1.656789916		-2.176792917
F		-1.123807299		-1.297857918		-1.00871178
F		-0.112339844		-1.042762566		-3.200771974
F		0.484317345		0.407223105		-0.026152335
F		1.049251682		-2.096179125		-0.084129185
