12
-185.77729729
Al		0.28230473		-2.315006172		-1.822497464
Al		2.044042572		-0.532110217		-0.802110851
Al		-0.330341689		0.317788443		-1.79880204
F		3.650208642		-0.17441476		-0.019362661
F		-0.158361336		-3.999357302		-2.221843072
F		2.071242674		-1.838823937		-2.300555189
F		1.527428176		0.670600131		-2.287343039
F		-1.487309283		1.65688246		-2.176820113
F		-1.123419955		-1.298330208		-1.008979038
F		-0.112246728		-1.043309062		-3.200401578
F		0.483916713		0.407423169		-0.025836713
F		1.048714848		-2.096708847		-0.084524711
