12
Properties=species:S:1:pos:R:3:forces:R:3 energy=-186.66002406 pbc="F F F"
Al    0.23119699300000002    -0.716848758    1.768282139    -0.613418    -0.078012    -0.541258
Al    2.5136055649999998    -1.7561406720000001    -0.5453854969999999    0.183741    -0.180944    -0.295703
Al    -0.8934009810000001    -1.765744958    -0.804617343    0.260968    0.485868    0.798048
F    3.705954307    -0.787939993    -1.60877998    0.431607    -0.329216    -0.271335
F    -1.3595652539999998    -0.336188288    -1.9844097969999999    0.006113    0.506436    0.220868
F    2.954306195    -3.520413894    -1.008098643    0.522852    -0.00065    -0.326387
F    -1.192473166    -3.5747594019999998    -0.5051531199999999    0.204013    -0.383162    0.393956
F    1.961771597    -1.333135193    1.243934802    -0.12944    -0.054204    -0.088089
F    0.846026764    -1.333768282    -1.1307596649999998    -0.0079    0.001596    0.0311
F    -0.349500048    -1.258855163    3.411561289    -0.434601    -0.082925    -0.007303
F    0.04773957099999998    0.9653014990000001    0.9971271359999999    -0.277731    0.022131    -0.028146
F    -1.232194668    -1.444880583    0.956593814    -0.146204    0.093083    0.114249
