      12
SCF Done            -186.66002406
Al            0.239843993        -0.600724758         1.724420139
Al            2.408330565        -1.837912672        -0.607489497
Al           -0.863828981        -1.780112958        -0.891263343
F             3.664300307        -0.702205993        -1.281603980
F            -1.707719254        -0.354614288        -1.671741797
F             2.996246195        -3.560632894        -0.684840643
F            -1.032769166        -3.609130402        -0.810261120
F             1.754629597        -1.437868193         1.078827802
F             0.846883764        -1.508299282        -1.487077665
F            -0.154729048        -1.175747163         3.404860289
F             0.230585571         1.132899499         1.172995136
F            -1.135456668        -1.432856583         0.880382814
