12
Properties=species:S:1:pos:R:3:forces:R:3 energy=-186.36643991 pbc="F F F"
Al    0.02635974299999999    1.7054071960000001    1.844212621    0.128884    0.10118    -0.23757
Al    2.6198457960000003    2.788079425    1.8834340749999998    0.126323    0.143205    0.081644
Al    1.411530258    2.852572381    -0.7867357530000001    0.031517    0.161647    -0.190208
F    1.0572075520000002    2.966255019    3.060076332    0.041467    -0.059464    0.115713
F    -1.709489847    2.3521824430000002    2.4800128949999998    -0.103123    -0.131749    0.141032
F    -0.78548456    0.303544482    2.83205486    -0.130414    0.079996    0.061738
F    2.026132569    1.016298585    1.964354734    0.055946    0.02967    0.020378
F    2.6426152419999998    1.556797972    -0.102423354    -0.120136    -0.172233    0.033645
F    1.057415714    2.979073252    -2.584461604    -0.017699    -0.031744    -0.037101
F    1.654321068    4.008468387    0.752560565    -0.06665    -0.006206    0.052363
F    4.272977866    3.120464411    2.591085768    0.019863    -0.018153    0.04136
F    0.124929    1.6330073680000001    -0.061466195    0.034023    -0.096148    -0.082993
