12
Properties=species:S:1:pos:R:3:forces:R:3 energy=-181.26541417 pbc="F F F"
Al    0.092514343    1.558171296    1.827394521    5.621915    2.751108    -16.618834
Al    2.3318726959999996    2.515463825    1.8196277749999998    0.025672    -0.012581    1.056746
Al    1.4639692579999999    2.6879436809999997    -0.516923253    -2.232627    -1.540639    3.622077
F    1.113811652    3.471210919    3.097261132    0.084893    -0.834202    -0.198576
F    -1.373134747    2.4917179430000003    2.147993595    0.024846    -0.19797    0.626592
F    -0.49856936    0.071134582    2.77485976    0.161643    0.261032    0.643792
F    1.498370969    0.637863385    1.9443015339999998    -3.799984    0.662102    0.684615
F    3.117816542    1.721344872    -0.38225205399999995    -0.692599    0.580029    -1.042368
F    1.142240714    3.016286752    -2.222901704    0.30734    0.116382    0.367143
F    1.580148568    4.333913087    0.435835865    -0.408486    -0.609093    -1.40133
F    3.8534788660000006    3.068177211    2.390173868    0.821936    0.459378    0.410421
F    0.1082985    1.820930068    0.521076805    0.085452    -1.635548    11.849721
