12
Properties=species:S:1:pos:R:3:forces:R:3 energy=-185.72924603 pbc="F F F"
Al    0.16221967199999998    -2.3753785109999996    -1.5665315610000001    0.028934    0.043025    0.044071
Al    2.08210893    -0.5252922560000001    -0.9384037239999999    0.04423    0.13172    -0.187287
Al    -0.281770006    0.31087680300000003    -1.9239315830000001    0.031976    0.058209    0.226619
F    3.620949888    0.125275584    -0.18805232300000002    0.029671    0.006281    -0.064352
F    -0.468216674    -3.981011793    -2.171783736    -0.00335    -0.000814    0.006518
F    2.0572240379999998    -1.762230476    -2.302465789    0.080326    -0.101356    0.017333
F    1.6066644950000002    1.019908539    -2.13440782    0.00717    -0.05297    0.03114
F    -1.4320353220000002    1.673967231    -2.220849211    -0.027506    -0.007827    0.057321
F    -1.317413486    -1.291252852    -1.123573469    -0.148448    -0.042945    -0.050326
F    0.212913926    -1.024661809    -3.1045307810000002    0.145112    -0.002873    -0.119198
F    0.39750969599999997    -0.10494920200000002    -0.08339350200000001    -0.048127    -0.045782    -0.048046
F    1.262434134    -2.29903111    0.009893227000000004    -0.139989    0.01533    0.086208
