12
Properties=species:S:1:pos:R:3:forces:R:3 energy=-180.72245818 pbc="F F F"
Al    -1.536269261    2.86275162    -1.516178091    13.273646    -9.895726    -10.388855
Al    -0.630913555    -0.23405899400000002    -2.217969974    -0.620107    3.756983    0.222639
Al    -2.235669576    -0.057826718    -0.375638837    2.122337    -1.964601    -2.788415
F    -0.8408529410000001    3.518551836    -0.354104857    -0.086662    0.795998    1.201992
F    -2.706232647    3.052502593    -2.175421192    -1.371248    0.371413    0.02172
F    -1.2959090800000002    -1.846357027    -1.856965161    -0.604108    0.110348    0.838401
F    -2.575213562    1.107741283    0.125733562    -1.233531    0.428195    1.840758
F    -3.282151563    -1.322042632    0.636574053    -0.122618    0.732169    0.241088
F    0.743582998    -0.604316941    -3.785273904    0.100795    -0.053004    -0.04783
F    -0.702160525    2.373448114    -2.064672631    -9.906172    6.69638    7.364248
F    -2.416627557    0.489400751    -2.291262228    -0.903806    -0.580646    0.544178
F    -0.357102968    0.159920639    -0.455716608    -0.648525    -0.397508    0.950075
