12
Properties=species:S:1:pos:R:3:forces:R:3 energy=-185.47425496 pbc="F F F"
Al    0.342503672    -2.3846515110000004    -2.042468561    0.224038    0.23397    0.04291
Al    1.89300593    -0.46208525599999994    -0.715503724    -0.408625    0.525292    0.3919
Al    -0.324595006    0.280584803    -1.7099405829999998    0.767918    0.443323    -0.119936
F    3.352964888    0.27297758400000005    0.17571267699999998    -0.067116    -0.023226    0.138714
F    -0.294046674    -4.067433793    -2.266245736    0.005707    0.001432    -0.015899
F    2.082766038    -1.946939476    -2.484366789    -0.052316    0.133566    -0.545049
F    1.607011495    0.22261253900000005    -2.21955982    -0.258154    -0.273959    -0.006745
F    -1.105153322    1.8828512309999998    -2.291662211    0.054915    0.00853    -0.129462
F    -0.844008486    -1.433244852    -0.8034894690000001    -0.07547    -0.136957    0.672579
F    -0.464490074    -0.9618098089999999    -3.2849017810000003    -0.401912    -0.200429    -0.548923
F    0.315995696    0.480265798    -0.016058502    0.073434    -0.240564    -0.141702
F    1.350532134    -2.1214381099999997    -0.082062773    0.137582    -0.470977    0.261613
