12
Properties=species:S:1:pos:R:3:forces:R:3 energy=-185.77729729 pbc="F F F"
Al    0.45767097199999995    -2.282103611    -2.221881861    -0.0    -0.0    -0.0
Al    2.21684313    -0.49501025600000004    -1.202190624    0.0    -0.0    0.0
Al    -0.153039206    0.355046903    -2.196786083    -0.0    0.0    -0.0
F    3.6111072880000004    -0.183555616    -0.0012290229999999992    0.0    -0.0    0.0
F    -0.180841974    -4.035689893    -2.199204636    -0.0    -0.0    -0.0
F    1.9322876379999998    -1.758752276    -2.0897845889999997    0.0    0.0    -0.0
F    1.4020664950000001    0.5308343390000001    -2.06799642    0.0    -0.0    -0.0
F    -1.4972464220000001    1.648768531    -2.145109911    -0.0    0.0    -0.0
F    -1.337231486    -1.3216878520000002    -0.821163769    -0.0    0.0    0.0
F    -0.125255974    -1.0207285089999998    -2.953297181    0.0    0.0    -0.0
F    0.42812999599999996    0.471692998    0.20211399800000002    -0.0    -0.0    0.0
F    1.040988134    -2.17473461    0.176929827    -0.0    0.0    0.0
