12
Properties=species:S:1:pos:R:3:forces:R:3 energy=-186.31633549 pbc="F F F"
Al    -1.710061261    2.53807062    -1.242757091    -0.151027    -0.017651    -0.140905
Al    -0.5704533549999999    0.025550006    -2.394964774    0.025291    -0.054032    0.001039
Al    -2.256277976    -0.317471318    -0.5451030370000001    0.01357    -0.056415    0.013902
F    -0.5707377410000001    3.458875836    -0.033527057    0.073304    0.217536    0.107139
F    -3.005725247    3.3373721929999998    -2.275614592    -0.02206    -0.087622    -0.036351
F    -1.38088568    -1.659277227    -1.721032561    -0.059447    -0.085303    -0.069993
F    -2.746051762    1.457088083    -0.017538037999999992    0.009681    -0.003655    0.1013
F    -3.040148363    -1.408336232    0.726118853    -0.022232    -0.009464    0.00632
F    0.783717998    -0.630205141    -3.4703327039999996    0.005461    -0.003829    -0.024069
F    -0.429837725    1.928319314    -2.558818231    0.100727    0.014872    0.001396
F    -2.5127473570000003    0.49540355100000005    -2.353043828    -0.049774    0.126561    -0.021895
F    -0.370642368    0.336554839    -0.430285608    0.076506    -0.040997    0.062118
