      12
SCF Done            -167.43330663
Al           -1.714334189         2.569644685        -1.240790006
Al           -0.523281370        -0.008106996        -2.334800156
Al           -2.186206986        -0.346454312        -0.510057049
F            -0.872699680         3.845351911        -0.237246973
F            -3.049377170         3.073117266        -2.364087519
F            -1.480398688        -1.669394237        -1.813610554
F            -2.398385680         1.448599110         0.121918385
F            -3.273600530        -1.284844146         0.590815764
F             0.603831890        -0.495922060        -3.663924800
F            -0.254120693         1.884882322        -2.231002122
F            -2.427743357         0.553302551        -2.264808828
F            -0.255184363        -0.002277220        -0.387927588
