12
Properties=species:S:1:pos:R:3:forces:R:3 energy=-186.24838735 pbc="F F F"
Al    -1.623905761    2.5558222199999996    -1.160944491    -0.245145    -0.242936    -0.268454
Al    -0.575901855    -0.0007320939999999991    -2.3927549740000003    0.098149    -0.005577    -0.316516
Al    -2.249938476    -0.341340018    -0.555820637    -0.2976    -0.086102    0.117742
F    -0.350209341    3.0949489359999998    0.099767743    0.694099    0.358146    0.698955
F    -2.791738247    3.7930372930000003    -1.995807092    -0.402299    0.122317    -0.343942
F    -0.84092278    -1.674964827    -1.231875361    0.093101    -0.626349    -0.031291
F    -3.021026162    1.434676583    -0.36451783800000004    -0.305589    -0.001668    0.187701
F    -3.165749163    -1.321144032    0.666698653    -0.007595    -0.075352    0.050431
F    0.6963647980000001    -0.535338541    -3.571232304    0.062113    -0.061168    -0.02606
F    -0.795084625    1.8875770139999999    -2.807064331    0.150342    0.091095    -0.312598
F    -2.571581957    -0.12158924900000001    -2.521030128    -0.196748    0.245092    -0.133851
F    -0.536840368    0.797197139    -0.496366208    0.357172    0.282502    0.377883
