12
-186.35103317
Al		-1.613406789		2.577110685		-1.325938806
Al		-0.65146917		0.151724604		-2.295570156
Al		-2.211141386		-0.516943512		-0.424251849
F		-0.73118548		3.691063311		-0.190601773
F		-3.02605697		3.174490866		-2.305924719
F		-1.516651888		-1.703356237		-1.567744754
F		-2.42085948		1.33228731		-0.157907615
F		-3.33114913		-1.468388546		0.659660764
F		0.54458809		-0.38332686		-3.5236824
F		-0.161761493		2.069460922		-2.445227122
F		-2.431621757		0.479106751		-2.329720028
F		-0.270782963		0.16528038		-0.436257388
