12
-186.35103317
Al		-1.642484589		2.571194285		-1.294031606
Al		-0.61143257		0.101315804		-2.312856556
Al		-2.207758586		-0.457700312		-0.454609849
F		-0.73993448		3.689283111		-0.181001373
F		-3.02310637		3.175091266		-2.309162319
F		-1.470195088		-1.693903837		-1.618722154
F		-2.45590128		1.37141191		-0.087521215
F		-3.30319373		-1.413286546		0.640574564
F		0.57017149		-0.42753566		-3.5633448
F		-0.219632293		2.011431922		-2.413659722
F		-2.439378557		0.477528551		-2.321208428
F		-0.281400763		0.16311998		-0.424606388
