12
-186.35103317
Al		-1.729717989		2.553445085		-1.198310006
Al		-0.49132277		-0.049910596		-2.364715756
Al		-2.197610186		-0.279970712		-0.545683849
F		-0.76618148		3.683942511		-0.152200173
F		-3.01425457		3.176892466		-2.318875119
F		-1.330824688		-1.665546637		-1.771654354
F		-2.56102668		1.48878571		0.123637985
F		-3.21932753		-1.247980546		0.583315964
F		0.64692169		-0.56016206		-3.682332
F		-0.393244693		1.837344922		-2.318957522
F		-2.462648957		0.472793951		-2.295673628
F		-0.313254163		0.15663878		-0.389653388
