12
-186.35103317
Al		-1.846029189		2.529779485		-1.070681206
Al		-0.33117637		-0.251545796		-2.433861356
Al		-2.184078986		-0.042997912		-0.667115849
F		-0.80117748		3.676821711		-0.113798573
F		-3.00245217		3.179294066		-2.331825519
F		-1.144997488		-1.627737037		-1.975563954
F		-2.70119388		1.64528411		0.405183585
F		-3.10750593		-1.027572546		0.506971164
F		0.74925529		-0.73699726		-3.8409816
F		-0.624727893		1.605228922		-2.192687922
F		-2.493676157		0.466481151		-2.261627228
F		-0.355725363		0.14799718		-0.343049388
