12
-186.35103317
Al		-1.671562389		2.565277885		-1.262124406
Al		-0.57139597		0.050907004		-2.330142956
Al		-2.204375786		-0.398457112		-0.484967849
F		-0.74868348		3.687502911		-0.171400973
F		-3.02015577		3.175691666		-2.312399919
F		-1.423738288		-1.684451437		-1.669699554
F		-2.49094308		1.41053651		-0.017134815
F		-3.27523833		-1.358184546		0.621488364
F		0.59575489		-0.47174446		-3.6030072
F		-0.277503093		1.953402922		-2.382092322
F		-2.447135357		0.475950351		-2.312696828
F		-0.292018563		0.16095958		-0.412955388
