12
-186.35103317
Al		-1.729718061		2.55344502		-1.198310091
Al		-0.491322755		-0.049910594		-2.364715974
Al		-2.197610176		-0.279970718		-0.545683837
F		-0.766181541		3.683942436		-0.152200257
F		-3.014254647		3.176892393		-2.318875192
F		-1.33082468		-1.665546627		-1.771654361
F		-2.561026762		1.488785683		0.123637962
F		-3.219327363		-1.247980632		0.583316053
F		0.646921798		-0.560162141		-3.682331904
F		-0.393244725		1.837344914		-2.318957631
F		-2.462648957		0.472793951		-2.295673628
F		-0.313254168		0.156638839		-0.389653408
