12
-186.35103317
Al		-1.598867961		2.58006882		-1.341892491
Al		-0.671487455		0.176929006		-2.286926274
Al		-2.212832776		-0.546565118		-0.409072837
F		-0.726811041		3.691953336		-0.195402057
F		-3.027532347		3.174190593		-2.304305992
F		-1.53988028		-1.708082427		-1.542256061
F		-2.403338662		1.312724983		-0.193100838
F		-3.345126663		-1.495939632		0.669203953
F		0.531796498		-0.361222541		-3.503851104
F		-0.132826125		2.098475414		-2.461010931
F		-2.427743357		0.479895851		-2.333975828
F		-0.265474068		0.166360639		-0.442082908
