12
-186.35103317
Al		-1.787873661		2.54161222		-1.134495691
Al		-0.411249555		-0.150728194		-2.399289174
Al		-2.190844576		-0.161484318		-0.606399837
F		-0.783679541		3.680382036		-0.132999457
F		-3.008353447		3.178093193		-2.325350392
F		-1.23791108		-1.646641827		-1.873609161
F		-2.631110362		1.567034883		0.264410762
F		-3.163416563		-1.137776632		0.545143653
F		0.698088598		-0.648579741		-3.761656704
F		-0.508986325		1.721286914		-2.255822831
F		-2.478162557		0.469637551		-2.278650428
F		-0.334489768		0.152318039		-0.366351408
