12
-186.35103317
Al		-1.773334761		2.54457042		-1.150449291
Al		-0.431267855		-0.125523794		-2.390645874
Al		-2.192535976		-0.191105918		-0.591220837
F		-0.779305041		3.681272136		-0.137799657
F		-3.009828747		3.177792993		-2.323731592
F		-1.26113948		-1.651368027		-1.848120461
F		-2.613589462		1.547472583		0.229217562
F		-3.177394263		-1.165327632		0.554686753
F		0.685296898		-0.626475341		-3.741825504
F		-0.480050925		1.750301414		-2.271606531
F		-2.474284157		0.470426651		-2.282906228
F		-0.329180868		0.153398239		-0.372176908
