12
-186.35103317
Al		-1.744256961		2.55048682		-1.182356491
Al		-0.471304455		-0.075114994		-2.373359274
Al		-2.195918776		-0.250349118		-0.560862837
F		-0.770556041		3.683052336		-0.147400057
F		-3.012779347		3.177192593		-2.320493992
F		-1.30759628		-1.660820427		-1.797143061
F		-2.578547662		1.508347983		0.158831162
F		-3.205349663		-1.220429632		0.573772953
F		0.659713498		-0.582266541		-3.702163104
F		-0.422180125		1.808330414		-2.303173931
F		-2.466527357		0.472004851		-2.291417828
F		-0.318563068		0.155558639		-0.383827908
