12
-186.35103317
Al		-1.758795789		2.547528685		-1.166402806
Al		-0.45128617		-0.100319396		-2.382002156
Al		-2.194227386		-0.220727512		-0.576041849
F		-0.77493048		3.682162311		-0.142599773
F		-3.01130397		3.177492866		-2.322112719
F		-1.284367888		-1.656094237		-1.822631754
F		-2.59606848		1.52791031		0.194024385
F		-3.19137213		-1.192878546		0.564229764
F		0.67250509		-0.60437086		-3.7219944
F		-0.451115493		1.779315922		-2.287390122
F		-2.470405757		0.471215751		-2.287162028
F		-0.323871963		0.15447838		-0.378002388
