12
-186.35103317
Al		-1.816951389		2.535695885		-1.102588406
Al		-0.37121297		-0.201136996		-2.416574956
Al		-2.187461786		-0.102241112		-0.636757849
F		-0.79242848		3.678601911		-0.123398973
F		-3.00540277		3.178693666		-2.328587919
F		-1.191454288		-1.637189437		-1.924586554
F		-2.66615208		1.60615951		0.334797185
F		-3.13546133		-1.082674546		0.526057364
F		0.72367189		-0.69278846		-3.8013192
F		-0.566857093		1.663257922		-2.224255322
F		-2.485919357		0.468059351		-2.270138828
F		-0.345107563		0.15015758		-0.354700388
