12
-186.35103317
Al		-1.846029261		2.52977942		-1.070681291
Al		-0.331176355		-0.251545794		-2.433862374
Al		-2.184078976		-0.042997918		-0.667115837
F		-0.801177541		3.676821636		-0.113798657
F		-3.002452247		3.179293993		-2.331825592
F		-1.14499748		-1.627737027		-1.975563961
F		-2.701193962		1.645284083		0.405183562
F		-3.107505763		-1.027572632		0.506971253
F		0.749255398		-0.736997341		-3.840981504
F		-0.624727925		1.605228914		-2.192688031
F		-2.493676157		0.466481151		-2.261627228
F		-0.355725368		0.147997239		-0.343049408
12
-186.35103317
Al		-1.831490361		2.53273762		-1.086634891
Al		-0.351194655		-0.226341394		-2.425219074
Al		-2.185770376		-0.072619518		-0.651936837
F		-0.796803041		3.677711736		-0.118598857
F		-3.003927547		3.178993793		-2.330206792
F		-1.16822588		-1.632463227		-1.950075261
F		-2.683673062		1.625721783		0.369990362
F		-3.121483463		-1.055123632		0.516514353
F		0.736463698		-0.714892941		-3.821150304
F		-0.595792525		1.634243414		-2.208471731
F		-2.489797757		0.467270251		-2.265883028
F		-0.350416468		0.149077439		-0.348874908
12
-186.35103317
Al		-1.816951461		2.53569582		-1.102588491
Al		-0.371212955		-0.201136994		-2.416575774
Al		-2.187461776		-0.102241118		-0.636757837
F		-0.792428541		3.678601836		-0.123399057
F		-3.005402847		3.178693593		-2.328587992
F		-1.19145428		-1.637189427		-1.924586561
F		-2.666152162		1.606159483		0.334797162
F		-3.135461163		-1.082674632		0.526057453
F		0.723671998		-0.692788541		-3.801319104
F		-0.566857125		1.663257914		-2.224255431
F		-2.485919357		0.468059351		-2.270138828
F		-0.345107568		0.150157639		-0.354700408
12
-186.35103317
Al		-1.802412561		2.53865402		-1.118542091
Al		-0.391231255		-0.175932594		-2.407932474
Al		-2.189153176		-0.131862718		-0.621578837
F		-0.788054041		3.679491936		-0.128199257
F		-3.006878147		3.178393393		-2.326969192
F		-1.21468268		-1.641915627		-1.899097861
F		-2.648631262		1.586597183		0.299603962
F		-3.149438863		-1.110225632		0.535600553
F		0.710880298		-0.670684141		-3.781487904
F		-0.537921725		1.692272414		-2.240039131
F		-2.482040957		0.468848451		-2.274394628
F		-0.339798668		0.151237839		-0.360525908
12
-186.35103317
Al		-1.787873661		2.54161222		-1.134495691
Al		-0.411249555		-0.150728194		-2.399289174
Al		-2.190844576		-0.161484318		-0.606399837
F		-0.783679541		3.680382036		-0.132999457
F		-3.008353447		3.178093193		-2.325350392
F		-1.23791108		-1.646641827		-1.873609161
F		-2.631110362		1.567034883		0.264410762
F		-3.163416563		-1.137776632		0.545143653
F		0.698088598		-0.648579741		-3.761656704
F		-0.508986325		1.721286914		-2.255822831
F		-2.478162557		0.469637551		-2.278650428
F		-0.334489768		0.152318039		-0.366351408
12
-186.35103317
Al		-1.773334761		2.54457042		-1.150449291
Al		-0.431267855		-0.125523794		-2.390645874
Al		-2.192535976		-0.191105918		-0.591220837
F		-0.779305041		3.681272136		-0.137799657
F		-3.009828747		3.177792993		-2.323731592
F		-1.26113948		-1.651368027		-1.848120461
F		-2.613589462		1.547472583		0.229217562
F		-3.177394263		-1.165327632		0.554686753
F		0.685296898		-0.626475341		-3.741825504
F		-0.480050925		1.750301414		-2.271606531
F		-2.474284157		0.470426651		-2.282906228
F		-0.329180868		0.153398239		-0.372176908
12
-186.35103317
Al		-1.758795861		2.54752862		-1.166402891
Al		-0.451286155		-0.100319394		-2.382002574
Al		-2.194227376		-0.220727518		-0.576041837
F		-0.774930541		3.682162236		-0.142599857
F		-3.011304047		3.177492793		-2.322112792
F		-1.28436788		-1.656094227		-1.822631761
F		-2.596068562		1.527910283		0.194024362
F		-3.191371963		-1.192878632		0.564229853
F		0.672505198		-0.604370941		-3.721994304
F		-0.451115525		1.779315914		-2.287390231
F		-2.470405757		0.471215751		-2.287162028
F		-0.323871968		0.154478439		-0.378002408
12
-186.35103317
Al		-1.744256961		2.55048682		-1.182356491
Al		-0.471304455		-0.075114994		-2.373359274
Al		-2.195918776		-0.250349118		-0.560862837
F		-0.770556041		3.683052336		-0.147400057
F		-3.012779347		3.177192593		-2.320493992
F		-1.30759628		-1.660820427		-1.797143061
F		-2.578547662		1.508347983		0.158831162
F		-3.205349663		-1.220429632		0.573772953
F		0.659713498		-0.582266541		-3.702163104
F		-0.422180125		1.808330414		-2.303173931
F		-2.466527357		0.472004851		-2.291417828
F		-0.318563068		0.155558639		-0.383827908
12
-186.35103317
Al		-1.729718061		2.55344502		-1.198310091
Al		-0.491322755		-0.049910594		-2.364715974
Al		-2.197610176		-0.279970718		-0.545683837
F		-0.766181541		3.683942436		-0.152200257
F		-3.014254647		3.176892393		-2.318875192
F		-1.33082468		-1.665546627		-1.771654361
F		-2.561026762		1.488785683		0.123637962
F		-3.219327363		-1.247980632		0.583316053
F		0.646921798		-0.560162141		-3.682331904
F		-0.393244725		1.837344914		-2.318957631
F		-2.462648957		0.472793951		-2.295673628
F		-0.313254168		0.156638839		-0.389653408
12
-186.35103317
Al		-1.715179161		2.55640322		-1.214263691
Al		-0.511341055		-0.024706194		-2.356072674
Al		-2.199301576		-0.309592318		-0.530504837
F		-0.761807041		3.684832536		-0.157000457
F		-3.015729947		3.176592193		-2.317256392
F		-1.35405308		-1.670272827		-1.746165661
F		-2.543505862		1.469223383		0.088444762
F		-3.233305063		-1.275531632		0.592859153
F		0.634130098		-0.538057741		-3.662500704
F		-0.364309325		1.866359414		-2.334741331
F		-2.458770557		0.473583051		-2.299929428
F		-0.307945268		0.157719039		-0.395478908
12
-186.35103317
Al		-1.700640261		2.55936142		-1.230217291
Al		-0.531359355		0.000498206		-2.347429374
Al		-2.200992976		-0.339213918		-0.515325837
F		-0.757432541		3.685722636		-0.161800657
F		-3.017205247		3.176291993		-2.315637592
F		-1.37728148		-1.674999027		-1.720676961
F		-2.525984962		1.449661083		0.053251562
F		-3.247282763		-1.303082632		0.602402253
F		0.621338398		-0.515953341		-3.642669504
F		-0.335373925		1.895373914		-2.350525031
F		-2.454892157		0.474372151		-2.304185228
F		-0.302636368		0.158799239		-0.401304408
12
-186.35103317
Al		-1.686101361		2.56231962		-1.246170891
Al		-0.551377655		0.025702606		-2.338786074
Al		-2.202684376		-0.368835518		-0.500146837
F		-0.753058041		3.686612736		-0.166600857
F		-3.018680547		3.175991793		-2.314018792
F		-1.40050988		-1.679725227		-1.695188261
F		-2.508464062		1.430098783		0.018058362
F		-3.261260463		-1.330633632		0.611945353
F		0.608546698		-0.493848941		-3.622838304
F		-0.306438525		1.924388414		-2.366308731
F		-2.451013757		0.475161251		-2.308441028
F		-0.297327468		0.159879439		-0.407129908
12
-186.35103317
Al		-1.671562461		2.56527782		-1.262124491
Al		-0.571395955		0.050907006		-2.330142774
Al		-2.204375776		-0.398457118		-0.484967837
F		-0.748683541		3.687502836		-0.171401057
F		-3.020155847		3.175691593		-2.312399992
F		-1.42373828		-1.684451427		-1.669699561
F		-2.490943162		1.410536483		-0.017134838
F		-3.275238163		-1.358184632		0.621488453
F		0.595754998		-0.471744541		-3.603007104
F		-0.277503125		1.953402914		-2.382092431
F		-2.447135357		0.475950351		-2.312696828
F		-0.292018568		0.160959639		-0.412955408
12
-186.35103317
Al		-1.657023561		2.56823602		-1.278078091
Al		-0.591414255		0.076111406		-2.321499474
Al		-2.206067176		-0.428078718		-0.469788837
F		-0.744309041		3.688392936		-0.176201257
F		-3.021631147		3.175391393		-2.310781192
F		-1.44696668		-1.689177627		-1.644210861
F		-2.473422262		1.390974183		-0.052328038
F		-3.289215863		-1.385735632		0.631031553
F		0.582963298		-0.449640141		-3.583175904
F		-0.248567725		1.982417414		-2.397876131
F		-2.443256957		0.476739451		-2.316952628
F		-0.286709668		0.162039839		-0.418780908
12
-186.35103317
Al		-1.642484661		2.57119422		-1.294031691
Al		-0.611432555		0.101315806		-2.312856174
Al		-2.207758576		-0.457700318		-0.454609837
F		-0.739934541		3.689283036		-0.181001457
F		-3.023106447		3.175091193		-2.309162392
F		-1.47019508		-1.693903827		-1.618722161
F		-2.455901362		1.371411883		-0.087521238
F		-3.303193563		-1.413286632		0.640574653
F		0.570171598		-0.427535741		-3.563344704
F		-0.219632325		2.011431914		-2.413659831
F		-2.439378557		0.477528551		-2.321208428
F		-0.281400768		0.163120039		-0.424606408
12
-186.35103317
Al		-1.627945761		2.57415242		-1.309985291
Al		-0.631450855		0.126520206		-2.304212874
Al		-2.209449976		-0.487321918		-0.439430837
F		-0.735560041		3.690173136		-0.185801657
F		-3.024581747		3.174790993		-2.307543592
F		-1.49342348		-1.698630027		-1.593233461
F		-2.438380462		1.351849583		-0.122714438
F		-3.317171263		-1.440837632		0.650117753
F		0.557379898		-0.405431341		-3.543513504
F		-0.190696925		2.040446414		-2.429443531
F		-2.435500157		0.478317651		-2.325464228
F		-0.276091868		0.164200239		-0.430431908
12
-186.35103317
Al		-1.613406861		2.57711062		-1.325938891
Al		-0.651469155		0.151724606		-2.295569574
Al		-2.211141376		-0.516943518		-0.424251837
F		-0.731185541		3.691063236		-0.190601857
F		-3.026057047		3.174490793		-2.305924792
F		-1.51665188		-1.703356227		-1.567744761
F		-2.420859562		1.332287283		-0.157907638
F		-3.331148963		-1.468388632		0.659660853
F		0.544588198		-0.383326941		-3.523682304
F		-0.161761525		2.069460914		-2.445227231
F		-2.431621757		0.479106751		-2.329720028
F		-0.270782968		0.165280439		-0.436257408
12
-186.35103317
Al		-1.598867961		2.58006882		-1.341892491
Al		-0.671487455		0.176929006		-2.286926274
Al		-2.212832776		-0.546565118		-0.409072837
F		-0.726811041		3.691953336		-0.195402057
F		-3.027532347		3.174190593		-2.304305992
F		-1.53988028		-1.708082427		-1.542256061
F		-2.403338662		1.312724983		-0.193100838
F		-3.345126663		-1.495939632		0.669203953
F		0.531796498		-0.361222541		-3.503851104
F		-0.132826125		2.098475414		-2.461010931
F		-2.427743357		0.479895851		-2.333975828
F		-0.265474068		0.166360639		-0.442082908
12
-186.35103317
Al		-1.584329061		2.58302702		-1.357846091
Al		-0.691505755		0.202133406		-2.278282974
Al		-2.214524176		-0.576186718		-0.393893837
F		-0.722436541		3.692843436		-0.200202257
F		-3.029007647		3.173890393		-2.302687192
F		-1.56310868		-1.712808627		-1.516767361
F		-2.385817762		1.293162683		-0.228294038
F		-3.359104363		-1.523490632		0.678747053
F		0.519004798		-0.339118141		-3.484019904
F		-0.103890725		2.127489914		-2.476794631
F		-2.423864957		0.480684951		-2.338231628
F		-0.260165168		0.167440839		-0.447908408
12
-186.35103317
Al		-1.569790161		2.58598522		-1.373799691
Al		-0.711524055		0.227337806		-2.269639674
Al		-2.216215576		-0.605808318		-0.378714837
F		-0.718062041		3.693733536		-0.205002457
F		-3.030482947		3.173590193		-2.301068392
F		-1.58633708		-1.717534827		-1.491278661
F		-2.368296862		1.273600383		-0.263487238
F		-3.373082063		-1.551041632		0.688290153
F		0.506213098		-0.317013741		-3.464188704
F		-0.074955325		2.156504414		-2.492578331
F		-2.419986557		0.481474051		-2.342487428
F		-0.254856268		0.168521039		-0.453733908
