12
-186.35103317
Al		-1.846029189		2.529779485		-1.070681206
Al		-0.33117637		-0.251545796		-2.433861356
Al		-2.184078986		-0.042997912		-0.667115849
F		-0.80117748		3.676821711		-0.113798573
F		-3.00245217		3.179294066		-2.331825519
F		-1.144997488		-1.627737037		-1.975563954
F		-2.70119388		1.64528411		0.405183585
F		-3.10750593		-1.027572546		0.506971164
F		0.74925529		-0.73699726		-3.8409816
F		-0.624727893		1.605228922		-2.192687922
F		-2.493676157		0.466481151		-2.261627228
F		-0.355725363		0.14799718		-0.343049388
12
-186.35103317
Al		-1.816951389		2.535695885		-1.102588406
Al		-0.37121297		-0.201136996		-2.416574956
Al		-2.187461786		-0.102241112		-0.636757849
F		-0.79242848		3.678601911		-0.123398973
F		-3.00540277		3.178693666		-2.328587919
F		-1.191454288		-1.637189437		-1.924586554
F		-2.66615208		1.60615951		0.334797185
F		-3.13546133		-1.082674546		0.526057364
F		0.72367189		-0.69278846		-3.8013192
F		-0.566857093		1.663257922		-2.224255322
F		-2.485919357		0.468059351		-2.270138828
F		-0.345107563		0.15015758		-0.354700388
12
-186.35103317
Al		-1.787873589		2.541612285		-1.134495606
Al		-0.41124957		-0.150728196		-2.399288556
Al		-2.190844586		-0.161484312		-0.606399849
F		-0.78367948		3.680382111		-0.132999373
F		-3.00835337		3.178093266		-2.325350319
F		-1.237911088		-1.646641837		-1.873609154
F		-2.63111028		1.56703491		0.264410785
F		-3.16341673		-1.137776546		0.545143564
F		0.69808849		-0.64857966		-3.7616568
F		-0.508986293		1.721286922		-2.255822722
F		-2.478162557		0.469637551		-2.278650428
F		-0.334489763		0.15231798		-0.366351388
12
-186.35103317
Al		-1.758795789		2.547528685		-1.166402806
Al		-0.45128617		-0.100319396		-2.382002156
Al		-2.194227386		-0.220727512		-0.576041849
F		-0.77493048		3.682162311		-0.142599773
F		-3.01130397		3.177492866		-2.322112719
F		-1.284367888		-1.656094237		-1.822631754
F		-2.59606848		1.52791031		0.194024385
F		-3.19137213		-1.192878546		0.564229764
F		0.67250509		-0.60437086		-3.7219944
F		-0.451115493		1.779315922		-2.287390122
F		-2.470405757		0.471215751		-2.287162028
F		-0.323871963		0.15447838		-0.378002388
12
-186.35103317
Al		-1.729717989		2.553445085		-1.198310006
Al		-0.49132277		-0.049910596		-2.364715756
Al		-2.197610186		-0.279970712		-0.545683849
F		-0.76618148		3.683942511		-0.152200173
F		-3.01425457		3.176892466		-2.318875119
F		-1.330824688		-1.665546637		-1.771654354
F		-2.56102668		1.48878571		0.123637985
F		-3.21932753		-1.247980546		0.583315964
F		0.64692169		-0.56016206		-3.682332
F		-0.393244693		1.837344922		-2.318957522
F		-2.462648957		0.472793951		-2.295673628
F		-0.313254163		0.15663878		-0.389653388
12
-186.35103317
Al		-1.700640189		2.559361485		-1.230217206
Al		-0.53135937		0.000498204		-2.347429356
Al		-2.200992986		-0.339213912		-0.515325849
F		-0.75743248		3.685722711		-0.161800573
F		-3.01720517		3.176292066		-2.315637519
F		-1.377281488		-1.674999037		-1.720676954
F		-2.52598488		1.44966111		0.053251585
F		-3.24728293		-1.303082546		0.602402164
F		0.62133829		-0.51595326		-3.6426696
F		-0.335373893		1.895373922		-2.350524922
F		-2.454892157		0.474372151		-2.304185228
F		-0.302636363		0.15879918		-0.401304388
12
-186.35103317
Al		-1.671562389		2.565277885		-1.262124406
Al		-0.57139597		0.050907004		-2.330142956
Al		-2.204375786		-0.398457112		-0.484967849
F		-0.74868348		3.687502911		-0.171400973
F		-3.02015577		3.175691666		-2.312399919
F		-1.423738288		-1.684451437		-1.669699554
F		-2.49094308		1.41053651		-0.017134815
F		-3.27523833		-1.358184546		0.621488364
F		0.59575489		-0.47174446		-3.6030072
F		-0.277503093		1.953402922		-2.382092322
F		-2.447135357		0.475950351		-2.312696828
F		-0.292018563		0.16095958		-0.412955388
12
-186.35103317
Al		-1.642484589		2.571194285		-1.294031606
Al		-0.61143257		0.101315804		-2.312856556
Al		-2.207758586		-0.457700312		-0.454609849
F		-0.73993448		3.689283111		-0.181001373
F		-3.02310637		3.175091266		-2.309162319
F		-1.470195088		-1.693903837		-1.618722154
F		-2.45590128		1.37141191		-0.087521215
F		-3.30319373		-1.413286546		0.640574564
F		0.57017149		-0.42753566		-3.5633448
F		-0.219632293		2.011431922		-2.413659722
F		-2.439378557		0.477528551		-2.321208428
F		-0.281400763		0.16311998		-0.424606388
12
-186.35103317
Al		-1.613406789		2.577110685		-1.325938806
Al		-0.65146917		0.151724604		-2.295570156
Al		-2.211141386		-0.516943512		-0.424251849
F		-0.73118548		3.691063311		-0.190601773
F		-3.02605697		3.174490866		-2.305924719
F		-1.516651888		-1.703356237		-1.567744754
F		-2.42085948		1.33228731		-0.157907615
F		-3.33114913		-1.468388546		0.659660764
F		0.54458809		-0.38332686		-3.5236824
F		-0.161761493		2.069460922		-2.445227122
F		-2.431621757		0.479106751		-2.329720028
F		-0.270782963		0.16528038		-0.436257388
12
-186.35103317
Al		-1.584328989		2.583027085		-1.357846006
Al		-0.69150577		0.202133404		-2.278283756
Al		-2.214524186		-0.576186712		-0.393893849
F		-0.72243648		3.692843511		-0.200202173
F		-3.02900757		3.173890466		-2.302687119
F		-1.563108688		-1.712808637		-1.516767354
F		-2.38581768		1.29316271		-0.228294015
F		-3.35910453		-1.523490546		0.678746964
F		0.51900469		-0.33911806		-3.48402
F		-0.103890693		2.127489922		-2.476794522
F		-2.423864957		0.480684951		-2.338231628
F		-0.260165163		0.16744078		-0.447908388
