12
Properties=species:S:1:pos:R:3:forces:R:3 energy=-179.66215830 pbc="F F F"
Al    0.96288498    0.41802001699999997    2.618170573    -0.032824    -0.083113    0.121273
Al    1.1309753999999999    1.1473351999999999    -0.0409991    -3.030054    -2.846573    0.548361
Al    -0.642358762    1.20659455    -2.158341273    -0.105882    -0.047202    -0.096148
F    -1.644771172    -0.404390653    -2.241857006    -0.036424    0.018836    -0.110463
F    2.056642253    -0.113677553    0.33128945200000004    -3.98754    6.975884    -4.01041
F    0.076282739    1.77975749    -3.814392533    -0.070885    -0.072101    0.024981
F    0.04300419    1.547501953    -0.894404749    7.424801    -3.74676    3.38835
F    2.394153457    2.150069012    -0.299970643    -3.557634    -3.342213    0.643836
F    1.531081739    0.14449900499999999    -1.232577054    -0.154573    5.092976    7.394918
F    0.8005536169999999    1.175365329    1.3597691390000002    3.591852    -1.86383    -8.016981
F    2.571153569    0.554166776    3.609322637    -0.078591    -0.06832    0.002063
F    0.051503175    -1.237675852    2.805550371    0.037754    -0.017584    0.11022
