12
Properties=species:S:1:pos:R:3:forces:R:3 energy=-184.95215167 pbc="F F F"
Al    -1.555326261    2.81135452    -1.4510731909999999    5.78668    -2.14468    -5.213188
Al    -0.570638455    -0.150687894    -2.292651174    -0.101318    1.657866    -0.033878
Al    -2.266698276    -0.06478431800000001    -0.375491337    0.875543    -1.143955    -1.111643
F    -0.924042241    3.4338527360000004    -0.43839475699999997    -0.073614    0.236399    0.371219
F    -2.650546947    3.019658793    -2.095795892    -0.420435    0.106961    0.055075
F    -1.30647628    -1.823531527    -1.836068061    -0.284851    -0.008591    0.368313
F    -2.513576762    1.183863183    0.032628061999999985    -1.054583    -0.429747    1.578615
F    -3.281087163    -1.322346132    0.637560153    -0.040274    0.292345    0.074524
F    0.6908526979999999    -0.571401141    -3.724202204    0.03574    -0.074776    -0.020307
F    -0.675784225    2.342868014    -2.068604831    -3.866125    1.896844    3.057677
F    -2.460008857    0.481573451    -2.300119728    -0.456207    -0.227351    0.367707
F    -0.32413716800000003    0.154502439    -0.41687650800000003    -0.400555    -0.161316    0.505887
