12
Properties=species:S:1:pos:R:3:forces:R:3 energy=-187.23935228 pbc="F F F"
Al    0.5027186929999999    -0.5410055579999999    1.7460942389999998    -0.185672    -0.305354    0.196843
Al    2.303880165    -1.765720472    -0.694161797    0.106495    0.302491    0.032419
Al    -0.9988326810000001    -1.912004058    -0.821080143    0.069974    0.03566    -0.175465
F    3.373924807    -0.49419849299999996    -1.43959428    -0.072795    -0.099651    0.027647
F    -2.026535054    -0.657389488    -1.6671078970000002    0.002835    -0.012771    0.014535
F    2.710859095    -3.541986294    -0.593782043    0.032061    -0.181785    -0.004066
F    -1.3008347660000001    -3.689243602    -0.8792929199999999    -0.013515    -0.034718    0.007956
F    2.0179721969999997    -1.304932193    1.096897402    0.070574    -0.033412    -0.061901
F    0.6976646639999999    -1.5528322819999998    -1.512656865    -0.109714    -0.015709    -0.013828
F    0.432832952    -1.069370363    3.499767089    0.027436    0.060621    -0.117409
F    0.415750071    1.1705345989999998    1.139287636    0.016671    0.212244    -0.064941
F    -0.887603968    -1.509038683    0.9518447139999999    0.05565    0.072384    0.158211
