12
Properties=species:S:1:pos:R:3:forces:R:3 energy=-186.33062683 pbc="F F F"
Al    -1.403589161    2.40049832    -1.2591704910000001    0.09324    0.055966    0.025147
Al    -0.125278355    -0.16658989400000002    -2.243433674    0.429345    0.073803    -0.087555
Al    -2.053130776    -0.49715371799999997    -0.644953737    -0.522824    -0.084729    0.14502
F    -0.615059141    3.5287189359999998    -0.06674685699999999    0.076755    0.091405    0.107219
F    -2.6334396470000003    3.072308393    -2.486389192    -0.166748    0.074907    -0.166925
F    -1.13354668    -1.8085527270000001    -1.746568461    -0.002382    -0.108553    -0.027232
F    -2.4413167619999996    1.316665283    -0.076624938    -0.072087    -0.046928    0.103108
F    -3.2665162629999998    -1.430532332    0.363852853    -0.076753    -0.061376    0.103875
F    1.104191098    -0.6611907410000001    -3.426955304    0.12489    -0.035711    -0.149347
F    0.03360137499999999    1.752305814    -2.223174631    0.082328    -0.013524    -0.051776
F    -2.112150757    0.362020751    -2.434819828    -0.207555    0.022245    -0.078693
F    -0.184410868    -0.0026837610000000067    -0.286148008    0.241788    0.032493    0.077158
