12
Properties=species:S:1:pos:R:3:forces:R:3 energy=-185.68924504 pbc="F F F"
Al    0.17524637199999998    -2.317053411    -1.594207261    0.081515    0.082992    0.009984
Al    2.03300373    -0.5553612560000001    -0.724384824    -0.182588    0.166688    0.233288
Al    -0.209290806    0.36486870299999996    -2.086383083    0.297626    0.162745    -0.122835
F    3.736739488    -0.630507216    0.013348377000000002    -0.038896    -0.011927    0.084193
F    0.015345626000000001    -4.080769693    -2.075476836    0.003583    0.000953    -0.00907
F    1.7618864379999999    -1.310211676    -2.392719989    -0.033439    0.057757    -0.237364
F    1.567535495    1.098139739    -2.17000322    -0.099936    -0.089607    -0.015511
F    -1.570304222    1.537900931    -2.411897511    0.033692    0.006948    -0.077067
F    -1.106157486    -1.115594852    -0.923820169    -0.010584    -0.061628    0.279383
F    -0.255859174    -1.107412109    -3.2644613810000003    -0.184027    -0.065742    -0.167848
F    0.47854039600000003    0.20083259800000003    -0.087814002    0.042111    -0.081562    -0.045842
F    1.268928134    -2.33437261    -0.034790373    0.090944    -0.167617    0.068689
