      12
SCF Done            -185.68924504
Al            0.279309372        -2.327087411        -1.835333261
Al            1.997730730        -0.550271256        -0.727326824
Al           -0.301990806         0.317480703        -1.873975083
F             3.579624488        -0.191496216         0.066999377
F            -0.162180374        -4.030983693        -2.239649836
F             2.014266438        -1.684367676        -2.349030989
F             1.533613495         0.636576739        -2.268915220
F            -1.442395222         1.662601931        -2.263985511
F            -0.998949486        -1.239235852        -0.885330169
F            -0.290585174        -1.059561109        -3.263955381
F             0.502696396         0.417933598        -0.043658002
F             1.189056134        -2.191101610        -0.062381373
