12
Properties=species:S:1:pos:R:3:forces:R:3 energy=-172.00120915 pbc="F F F"
Al    0.486731972    -2.363585611    -1.269984861    -2.389309    8.101795    12.617594
Al    1.93573113    -1.134770256    -0.44525062400000004    -13.499791    -3.185065    6.177456
Al    -0.748868206    0.303422903    -1.4820060830000001    1.467786    -8.553852    12.459102
F    3.670864288    -0.147578616    -0.052114023    1.498472    0.352989    -0.627818
F    -0.183849974    -4.123112893    -2.3083856359999997    0.237344    -0.928183    -1.358835
F    2.318408638    -1.872249276    -2.573758589    3.196742    -0.49537    -4.646848
F    1.637766495    0.755938339    -2.3919514200000003    2.634172    1.933911    -4.62373
F    -1.384734422    1.548472531    -2.148038911    -0.200475    0.962406    -1.340842
F    -1.105744486    -0.8440018519999999    -1.137159769    5.674132    1.338571    -2.578714
F    -0.10979697399999999    -1.035886509    -3.459099181    1.013663    0.287684    -5.563041
F    0.2869569960000001    0.528381998    -0.222468002    0.9957    -3.414107    -5.290535
F    1.154501134    -1.7328446100000001    -0.49383917299999996    -0.628436    3.59922    -5.223789
