12
Properties=species:S:1:pos:R:3:forces:R:3 energy=-186.85759763 pbc="F F F"
Al    1.43481518    0.154256217    2.622768873    0.442083    0.098123    -0.027433
Al    1.1643642    0.9715288    -0.0812453    0.246383    -1.45639    -0.323243
Al    -0.292293062    1.0026891500000001    -2.516392973    0.380238    0.128511    -0.21149
F    -1.641745972    -0.282226853    -2.305575006    -0.563613    0.142873    0.337233
F    2.159617453    -0.374910253    0.904994152    0.501089    -0.005178    0.097888
F    -0.16145986099999998    1.8220564899999998    -4.128437733    -0.020875    0.032287    0.01047
F    -0.39978411    1.9531371530000001    -0.835048849    -0.380668    -0.123038    0.300392
F    2.5305209570000002    2.295886612    -0.321726843    0.202682    0.967246    0.091569
F    1.250032639    0.07191660500000001    -1.801551154    0.343604    0.072183    -0.370706
F    0.449977717    1.535693329    1.693494639    -0.494308    -0.067215    -0.037751
F    2.569755969    0.48036227600000003    3.998536037    -0.019772    0.031744    0.013757
F    0.10337887499999998    -1.139509752    2.887192671    -0.636842    0.178855    0.119312
