12
Properties=species:S:1:pos:R:3:forces:R:3 energy=-187.38518821 pbc="F F F"
Al    1.2833346799999998    0.052392317    2.437561073    0.0    0.0    0.0
Al    1.388628    1.294315    -0.103324    0.0    0.0    -0.0
Al    -0.314499562    0.83731925    -2.316933773    0.0    0.0    -0.0
F    -1.6662761719999999    -0.36998045300000004    -2.210465606    -0.0    -0.0    0.0
F    2.253564253    -0.732901953    0.928451452    0.0    -0.0    0.0
F    0.054938139    1.82526329    -3.797771333    -0.0    -0.0    0.0
F    -0.75677981    2.118595753    -0.903368049    -0.0    0.0    -0.0
F    2.850025557    2.667221512    -0.367797443    0.0    0.0    -0.0
F    1.276700239    -0.253024595    -1.978290254    -0.0    -0.0    -0.0
F    0.220082117    1.6387154290000001    2.003374039    -0.0    -0.0    0.0
F    2.548669969    0.6002320760000001    3.622549437    -0.0    -0.0    0.0
F    0.019101675    -1.197914352    2.804521071    -0.0    -0.0    -0.0
