      12
SCF Done            -186.39349496
Al           -0.077521242         1.639982307         2.155741881
Al            2.525360096         2.607137025         1.765721575
Al            1.357882199         2.664063183        -0.646819593
F             1.001281240         3.092532356         2.835815013
F            -1.578260377         2.683496296         2.177066159
F            -0.492122256        -0.027298830         2.753360569
F             1.809970654         0.868077052         1.934187104
F             2.964964543         1.857055830        -0.072842347
F             1.086689361         3.034297481        -2.395313022
F             1.747122785         4.014805172         0.633178043
F             4.110830406         3.125966481         2.459402958
F            -0.009749000         1.800162000         0.212427000
