12
Properties=species:S:1:pos:R:3:forces:R:3 energy=-185.50435274 pbc="F F F"
Al    0.28157987199999995    -2.3047321110000003    -1.821636561    0.030873    0.118933    0.028087
Al    2.01294753    -0.545883656    -0.8180620239999999    -0.110991    -0.025191    -0.054145
Al    -0.319478506    0.29073780299999996    -1.7969369830000002    0.080121    -0.093738    0.02606
F    3.5997328879999997    -0.185783016    -0.043976523    -0.022633    -0.005136    -0.011041
F    -0.15977187399999998    -4.004957993    -2.223145636    0.006293    0.024245    0.005725
F    1.8720430379999997    -1.425764376    -2.569438489    -0.275057    0.525623    -0.446666
F    1.4923107949999999    0.21398213900000002    -2.55383422    -0.017894    -0.584862    -0.457232
F    -1.464913422    1.630863031    -2.169513411    0.016337    -0.019114    0.005314
F    -0.793377086    -1.197800052    -0.604863169    0.436261    0.095382    0.593317
F    0.398480626    -0.897209409    -3.187866081    0.722881    0.167669    -0.02785
F    0.30045409600000006    -0.08660820200000002    0.029167398    -0.304513    -0.657148    0.163931
F    0.6801863340000001    -1.72635501    0.013563427000000003    -0.561678    0.453336    0.1745
