      12
SCF Done            -185.50435274
Al            0.277329872        -2.321103111        -1.825502561
Al            2.028226530        -0.542416656        -0.810608024
Al           -0.330507506         0.303641803        -1.800524983
F             3.617623888        -0.181723016        -0.035248523
F            -0.164747874        -4.024127993        -2.227672636
F             2.052284038        -1.724036376        -2.357644489
F             1.523986795         0.557240139        -2.335935220
F            -1.477827422         1.645973031        -2.173714411
F            -1.066745086        -1.258285052        -0.901378169
F             0.002208626        -0.988691409        -3.218023081
F             0.455033096         0.287646798        -0.019290602
F             0.983330334        -1.993630010        -0.040999573
