12
-186.35103317
Al		-1.714934589		2.556582285		-1.216268406
Al		-0.67095697		0.008206204		-2.488642956
Al		-2.045384986		-0.343801112		-0.389793049
F		-0.64694528		3.709191511		-0.285424573
F		-3.18286677		3.141799266		-2.135820719
F		-1.383799088		-1.676621437		-1.711492154
F		-2.34996408		1.44581551		0.184554785
F		-2.95300533		-1.313686546		0.855154964
F		0.34161189		-0.50265006		-3.9085856
F		-0.484383493		1.905065922		-2.512918522
F		-2.574191357		0.449321751		-2.173015628
F		-0.165253163		0.18754318		-0.551534788
