12
-186.35103317
Al		-1.717193961		2.55635812		-1.216963891
Al		-0.688094355		0.008069906		-2.505110274
Al		-2.025732376		-0.343404318		-0.372633537
F		-0.633873341		3.713659536		-0.304130257
F		-3.204007447		3.136060193		-2.116217392
F		-1.38404408		-1.677212127		-1.707505461
F		-2.328233362		1.446730683		0.200118062
F		-2.915943263		-1.313143732		0.888991053
F		0.307138498		-0.503144541		-3.940133904
F		-0.503160025		1.905393614		-2.534378831
F		-2.588948957		0.444898951		-2.156344028
F		-0.148029868		0.192495239		-0.569480208
