12
-186.35103317
Al		-1.691443761		2.56102992		-1.237580291
Al		-0.444284355		-0.003708294		-2.259828874
Al		-2.298359976		-0.336885918		-0.594599337
F		-0.826076541		3.670202136		-0.082728657
F		-2.913426247		3.198642993		-2.426426592
F		-1.37352448		-1.673769527		-1.727994461
F		-2.635846962		1.451289083		-0.028340938
F		-3.431360263		-1.297493132		0.443186253
F		0.795893898		-0.523069341		-3.477411504
F		-0.242159425		1.889807414		-2.248384031
F		-2.380416157		0.490746151		-2.386319228
F		-0.388528868		0.140079239		-0.307873408
