12
-186.35103317
Al		-1.696961661		2.56002882		-1.233162491
Al		-0.496529355		-0.001184394		-2.312389174
Al		-2.239939776		-0.338282718		-0.547035237
F		-0.784890141		3.679514436		-0.130171857
F		-2.975693647		3.185232393		-2.359953192
F		-1.37577868		-1.674507227		-1.723603961
F		-2.569929762		1.450312283		0.020614562
F		-3.320913763		-1.300846832		0.538715853
F		0.691160598		-0.518799741		-3.576566304
F		-0.298088125		1.893147314		-2.309668631
F		-2.425101757		0.480921751		-2.337038828
F		-0.336993368		0.151311239		-0.363932008
