12
-186.35103317
Al		-1.707997461		2.55802662		-1.224326891
Al		-0.601019355		0.003863406		-2.417509774
Al		-2.123099376		-0.341076318		-0.451907037
F		-0.702517341		3.698139036		-0.225058257
F		-3.100228447		3.158411193		-2.227006392
F		-1.38028708		-1.675982627		-1.714822961
F		-2.438095362		1.448358683		0.118525562
F		-3.100020763		-1.307554232		0.729775053
F		0.481693998		-0.510260541		-3.774875904
F		-0.409945525		1.899827114		-2.432237831
F		-2.514472957		0.461272951		-2.238478028
F		-0.233922368		0.173775239		-0.476049208
