12
-186.35103317
Al		-1.702479561		2.55902772		-1.228744691
Al		-0.548774355		0.001339506		-2.364949474
Al		-2.181519576		-0.339679518		-0.499471137
F		-0.743703741		3.688826736		-0.177615057
F		-3.037961047		3.171821793		-2.293479792
F		-1.37803288		-1.675244927		-1.719213461
F		-2.504012562		1.449335483		0.069570062
F		-3.210467263		-1.304200532		0.634245453
F		0.586427298		-0.514530141		-3.675721104
F		-0.354016825		1.896487214		-2.370953231
F		-2.469787357		0.471097351		-2.287758428
F		-0.285457868		0.162543239		-0.419990608
