12
-186.35103317
Al		-1.698800961		2.55969512		-1.231689891
Al		-0.513944355		-0.000343094		-2.329909274
Al		-2.220466376		-0.338748318		-0.531180537
F		-0.771161341		3.682618536		-0.145986257
F		-2.996449447		3.180762193		-2.337795392
F		-1.37653008		-1.674753127		-1.722140461
F		-2.547957362		1.449986683		0.036933062
F		-3.284098263		-1.301964732		0.570559053
F		0.656249498		-0.517376541		-3.609617904
F		-0.316731025		1.894260614		-2.330096831
F		-2.439996957		0.477646951		-2.320612028
F		-0.319814868		0.155055239		-0.382618208
