12
-186.35103317
Al		-1.685925861		2.56203102		-1.241998091
Al		-0.392039355		-0.006232194		-2.207268574
Al		-2.356780176		-0.335489118		-0.642163437
F		-0.867262941		3.660889836		-0.035285457
F		-2.851158847		3.212053593		-2.492899992
F		-1.37127028		-1.673031827		-1.732384961
F		-2.701764162		1.452265883		-0.077296438
F		-3.541806763		-1.294139432		0.347656653
F		0.900627198		-0.527338941		-3.378256704
F		-0.186230725		1.886467514		-2.187099431
F		-2.335730557		0.500570551		-2.435599628
F		-0.440064368		0.128847239		-0.251814808
