12
-186.35103317
Al		-1.711676061		2.55735922		-1.221381691
Al		-0.635849355		0.005546006		-2.452549974
Al		-2.084152576		-0.342007518		-0.420197637
F		-0.675059741		3.704347236		-0.256687057
F		-3.141740047		3.149470793		-2.182690792
F		-1.38178988		-1.676474427		-1.711895961
F		-2.394150562		1.447707483		0.151162562
F		-3.026389763		-1.309790032		0.793461453
F		0.411871798		-0.507414141		-3.840979104
F		-0.447231325		1.902053714		-2.473094231
F		-2.544263357		0.454723351		-2.205624428
F		-0.199565368		0.181263239		-0.513421608
