12
-186.35103317
Al		-1.693283061		2.56069622		-1.236107691
Al		-0.461699355		-0.002866994		-2.277348974
Al		-2.278886576		-0.337351518		-0.578744637
F		-0.812347741		3.673306236		-0.098543057
F		-2.934182047		3.194172793		-2.404268792
F		-1.37427588		-1.674015427		-1.726530961
F		-2.613874562		1.450963483		-0.012022438
F		-3.394544763		-1.298611032		0.475029453
F		0.760982798		-0.521646141		-3.510463104
F		-0.260802325		1.890920714		-2.268812231
F		-2.395311357		0.487471351		-2.369892428
F		-0.371350368		0.143823239		-0.326559608
