12
-186.35103317
Al		-1.686345789		2.562140685		-1.244166006
Al		-0.39176177		-0.007209796		-2.206215756
Al		-2.356600986		-0.334626712		-0.640858649
F		-0.86791968		3.662253911		-0.038176573
F		-2.85154357		3.210784866		-2.495454319
F		-1.370763888		-1.673376637		-1.729861754
F		-2.70200568		1.45350671		-0.078051615
F		-3.54156053		-1.292478546		0.349649364
F		0.90106469		-0.52925646		-3.3767536
F		-0.186364293		1.885681922		-2.188131322
F		-2.335592957		0.499422551		-2.435354828
F		-0.440019563		0.13005518		-0.251073988
