12
-186.35103317
Al		-1.682772189		2.562835485		-1.247653206
Al		-0.35686237		-0.009136796		-2.170912356
Al		-2.395502986		-0.333479912		-0.672241849
F		-0.89554148		3.656386711		-0.007270573
F		-2.81012817		3.219408066		-2.540408519
F		-1.369134488		-1.672971037		-1.732157954
F		-2.74601088		1.45446811		-0.110877415
F		-3.61512993		-1.289827546		0.286461164
F		0.97099629		-0.53258226		-3.3102746
F		-0.149111893		1.883258922		-2.147532922
F		-2.305768157		0.505685151		-2.468147228
F		-0.474365363		0.12286918		-0.213516388
12
-186.35103317
Al		-1.686345789		2.562140685		-1.244166006
Al		-0.39176177		-0.007209796		-2.206215756
Al		-2.356600986		-0.334626712		-0.640858649
F		-0.86791968		3.662253911		-0.038176573
F		-2.85154357		3.210784866		-2.495454319
F		-1.370763888		-1.673376637		-1.729861754
F		-2.70200568		1.45350671		-0.078051615
F		-3.54156053		-1.292478546		0.349649364
F		0.90106469		-0.52925646		-3.3767536
F		-0.186364293		1.885681922		-2.188131322
F		-2.335592957		0.499422551		-2.435354828
F		-0.440019563		0.13005518		-0.251073988
12
-186.35103317
Al		-1.689919389		2.561445885		-1.240678806
Al		-0.42666117		-0.005282796		-2.241519156
Al		-2.317698986		-0.335773512		-0.609475449
F		-0.84029788		3.668121111		-0.069082573
F		-2.89295897		3.202161666		-2.450500119
F		-1.372393288		-1.673782237		-1.727565554
F		-2.65800048		1.45254531		-0.045225815
F		-3.46799113		-1.295129546		0.412837564
F		0.83113309		-0.52593066		-3.4432326
F		-0.223616693		1.888104922		-2.228729722
F		-2.365417757		0.493159951		-2.402562428
F		-0.405673763		0.13724118		-0.288631588
12
-186.35103317
Al		-1.693492989		2.560751085		-1.237191606
Al		-0.46156057		-0.003355796		-2.276822556
Al		-2.278796986		-0.336920312		-0.578092249
F		-0.81267608		3.673988311		-0.099988573
F		-2.93437437		3.193538466		-2.405545919
F		-1.374022688		-1.674187837		-1.725269354
F		-2.61399528		1.45158391		-0.012400015
F		-3.39442173		-1.297780546		0.476025764
F		0.76120149		-0.52260486		-3.5097116
F		-0.260869093		1.890527922		-2.269328122
F		-2.395242557		0.486897351		-2.369770028
F		-0.371327963		0.14442718		-0.326189188
12
-186.35103317
Al		-1.697066589		2.560056285		-1.233704406
Al		-0.49645997		-0.001428796		-2.312125956
Al		-2.239894986		-0.338067112		-0.546709049
F		-0.78505428		3.679855511		-0.130894573
F		-2.97578977		3.184915266		-2.360591719
F		-1.375652088		-1.674593437		-1.722973154
F		-2.56999008		1.45062251		0.020425785
F		-3.32085233		-1.300431546		0.539213964
F		0.69126989		-0.51927906		-3.5761906
F		-0.298121493		1.892950922		-2.309926522
F		-2.425067357		0.480634751		-2.336977628
F		-0.336982163		0.15161318		-0.363746788
12
-186.35103317
Al		-1.700640189		2.559361485		-1.230217206
Al		-0.53135937		0.000498204		-2.347429356
Al		-2.200992986		-0.339213912		-0.515325849
F		-0.75743248		3.685722711		-0.161800573
F		-3.01720517		3.176292066		-2.315637519
F		-1.377281488		-1.674999037		-1.720676954
F		-2.52598488		1.44966111		0.053251585
F		-3.24728293		-1.303082546		0.602402164
F		0.62133829		-0.51595326		-3.6426696
F		-0.335373893		1.895373922		-2.350524922
F		-2.454892157		0.474372151		-2.304185228
F		-0.302636363		0.15879918		-0.401304388
12
-186.35103317
Al		-1.704213789		2.558666685		-1.226730006
Al		-0.56625877		0.002425204		-2.382732756
Al		-2.162090986		-0.340360712		-0.483942649
F		-0.72981068		3.691589911		-0.192706573
F		-3.05862057		3.167668866		-2.270683319
F		-1.378910888		-1.675404637		-1.718380754
F		-2.48197968		1.44869971		0.086077385
F		-3.17371353		-1.305733546		0.665590364
F		0.55140669		-0.51262746		-3.7091486
F		-0.372626293		1.897796922		-2.391123322
F		-2.484716957		0.468109551		-2.271392828
F		-0.268290563		0.16598518		-0.438861988
12
-186.35103317
Al		-1.707787389		2.557971885		-1.223242806
Al		-0.60115817		0.004352204		-2.418036156
Al		-2.123188986		-0.341507512		-0.452559449
F		-0.70218888		3.697457111		-0.223612573
F		-3.10003597		3.159045666		-2.225729119
F		-1.380540288		-1.675810237		-1.716084554
F		-2.43797448		1.44773831		0.118903185
F		-3.10014413		-1.308384546		0.728778564
F		0.48147509		-0.50930166		-3.7756276
F		-0.409878693		1.900219922		-2.431721722
F		-2.514541757		0.461846951		-2.238600428
F		-0.233944763		0.17317118		-0.476419588
12
-186.35103317
Al		-1.711360989		2.557277085		-1.219755606
Al		-0.63605757		0.006279204		-2.453339556
Al		-2.084286986		-0.342654312		-0.421176249
F		-0.67456708		3.703324311		-0.254518573
F		-3.14145137		3.150422466		-2.180774919
F		-1.382169688		-1.676215837		-1.713788354
F		-2.39396928		1.44677691		0.151728985
F		-3.02657473		-1.311035546		0.791966764
F		0.41154349		-0.50597586		-3.8421066
F		-0.447131093		1.902642922		-2.472320122
F		-2.544366557		0.455584351		-2.205808028
F		-0.199598963		0.18035718		-0.513977188
12
-186.35103317
Al		-1.714934589		2.556582285		-1.216268406
Al		-0.67095697		0.008206204		-2.488642956
Al		-2.045384986		-0.343801112		-0.389793049
F		-0.64694528		3.709191511		-0.285424573
F		-3.18286677		3.141799266		-2.135820719
F		-1.383799088		-1.676621437		-1.711492154
F		-2.34996408		1.44581551		0.184554785
F		-2.95300533		-1.313686546		0.855154964
F		0.34161189		-0.50265006		-3.9085856
F		-0.484383493		1.905065922		-2.512918522
F		-2.574191357		0.449321751		-2.173015628
F		-0.165253163		0.18754318		-0.551534788
