12
Properties=species:S:1:pos:R:3:forces:R:3 energy=-186.32582235 pbc="F F F"
Al    -0.140479657    1.724761596    2.203095921    -0.786319    1.063305    -0.183913
Al    2.4247202960000003    2.7122360249999997    1.593185975    -0.87658    0.550183    -0.150725
Al    0.9439438580000001    3.014823381    -0.662704253    -0.702416    0.475801    -0.364958
F    1.036636352    3.099773119    2.886378632    0.302569    -0.134844    -0.125035
F    -1.611104947    2.7740511430000003    2.612276895    0.681082    -0.488784    0.002743
F    -0.50372346    -0.031057617999999995    2.6101512600000003    -0.023174    -0.418374    0.141389
F    1.736577369    0.9448251850000001    1.730674234    0.088335    -0.317643    0.005025
F    2.664030342    2.079939472    -0.319607454    0.502889    -0.310498    0.149996
F    0.518092714    3.467414552    -2.350465004    0.097444    -0.102932    0.309482
F    1.558097868    4.203888187    0.678803065    0.168711    -0.339694    0.073364
F    4.0895089659999995    3.163808211    2.204524168    0.423149    0.060921    0.169477
F    -0.2870914    2.061909968    0.278723505    0.124311    -0.037443    -0.026843
