      12
SCF Done            -167.64300898
Al           -0.014206613         1.478221172         2.133140820
Al            2.549472896         2.551266625         1.743823175
Al            1.261177684         2.908224584        -0.603152054
F             1.057629378         2.898828136         2.935564863
F            -1.542293083         2.519658722         2.338076386
F            -0.385490671        -0.237415866         2.563669430
F             1.867149753         0.789891993         1.749605865
F             2.921669345         2.024952653        -0.194054416
F             0.926527409         3.431670933        -2.305703012
F             1.696022894         4.082194587         0.805818067
F             4.150996568         3.028164377         2.433521580
F            -0.040238591         1.884750210         0.208601093
