12
Properties=species:S:1:pos:R:3:forces:R:3 energy=-185.19221126 pbc="F F F"
Al    0.8418235800000001    0.569962317    2.6586684729999996    -2.024764    2.872044    0.018864
Al    1.6743175    0.7543291    -0.2884812    0.482759    -1.757647    -0.452439
Al    -0.748513762    1.35120525    -2.073516373    -1.355237    2.543152    2.011082
F    -1.223515972    -0.594956353    -2.415137506    -0.257984    -2.064136    -0.378477
F    1.967746353    -0.351122353    1.231766152    0.199447    -0.360014    0.535967
F    0.286655039    1.35950789    -3.8130165330000003    1.161326    -0.171284    -1.649672
F    -0.32051521    2.096149653    -0.38205974900000006    0.253986    0.242328    0.790786
F    2.455192357    2.473119012    -0.267153343    0.268022    1.007223    0.07621
F    0.9058608389999999    0.170527905    -1.927971254    -0.191047    -0.168178    -0.625979
F    0.260425317    1.810758329    1.3465906390000002    -0.23891    0.48446    -0.67587
F    2.6981428689999998    0.17488167599999999    3.362579237    1.887043    -0.527793    0.50979
F    0.472904775    -1.4283112519999999    2.632703171    -0.184641    -2.100157    -0.160262
