12
Properties=species:S:1:pos:R:3:forces:R:3 energy=-187.38518821 pbc="F F F"
Al    1.02884268    0.34493531699999996    2.577992073    0.0    0.0    0.0
Al    1.485439    0.9458920000000001    -0.193381    0.0    0.0    -0.0
Al    -0.572885562    1.13177625    -2.188092773    0.0    0.0    -0.0
F    -1.516528172    -0.549539453    -2.300162606    -0.0    -0.0    0.0
F    2.0429432530000002    -0.395701953    1.023334452    0.0    -0.0    0.0
F    0.194183139    1.65201529    -3.874187333    -0.0    -0.0    0.0
F    -0.26486581000000003    1.996494753    -0.521674049    -0.0    0.0    -0.0
F    2.514648557    2.506351512    -0.281646443    0.0    0.0    -0.0
F    1.084689239    0.075034405    -1.828032254    -0.0    -0.0    -0.0
F    0.377655117    1.680857429    1.3902070389999999    -0.0    -0.0    0.0
F    2.6885149690000003    0.42668907600000006    3.547919437    -0.0    -0.0    0.0
F    0.174585675    -1.3802903519999998    2.7318870709999996    -0.0    -0.0    -0.0
