12
Properties=species:S:1:pos:R:3:forces:R:3 energy=-186.30681357 pbc="F F F"
Al    -0.322916738    1.0570558600000002    -1.727850636    -0.24094    0.507257    0.3656
Al    -0.396259614    1.065119653    1.3035661360000002    -0.070482    -0.12609    -0.081687
Al    -2.899494619    0.461746789    -1.820577942    -0.034632    -0.172258    -0.029348
F    -3.397999061    0.386028908    -3.5758695080000003    0.020533    -0.041224    -0.004367
F    -1.2902711569999998    -0.596328801    -1.775319145    0.076469    -0.085983    -0.233615
F    -1.8876850870000002    2.1223199029999997    -1.8727500830000001    0.007766    0.085745    0.210696
F    -1.8228073249999999    0.6411262390000001    0.22289992400000003    -0.063146    -0.384625    0.054517
F    0.736339827    1.570254743    -0.290837111    0.014821    0.46014    -0.001525
F    -0.489703175    2.7416840970000003    2.142526247    0.367362    0.285548    -0.188156
F    0.023538115    -0.514567758    2.1483148450000003    -0.263985    -0.259118    0.143768
F    -4.119062392    0.24316417    -0.491080565    -0.028749    0.045172    0.00961
F    0.23692712700000007    1.031801237    -3.6362060290000002    0.214982    -0.314564    -0.245492
