12
Properties=species:S:1:pos:R:3:forces:R:3 energy=-187.24415174 pbc="F F F"
Al    0.467482693    -0.832347358    1.870744239    0.059977    0.106378    -0.05652
Al    2.3047177650000004    -1.769572672    -0.668308397    -0.030835    -0.105077    -0.01689
Al    -0.962115081    -1.620002658    -0.9724751429999999    -0.033313    -0.00978    0.049567
F    3.469182007    -0.46762989299999996    -1.15357048    0.031716    0.039647    -0.01445
F    -1.8941174539999999    -0.226907688    -1.6428874969999998    -0.001688    0.005518    -0.005955
F    2.613298495    -3.569753494    -0.830746843    -0.008682    0.053712    -0.001216
F    -1.347946166    -3.4161934019999998    -1.29383932    0.002437    0.002895    -0.004118
F    1.9642915970000001    -1.558855793    1.149244402    -0.019404    0.012073    0.028671
F    0.760250664    -1.313085082    -1.509589265    0.04257    0.006169    -0.000888
F    0.285368352    -1.555419963    3.5021076890000002    -0.010099    -0.020357    0.046622
F    0.49370607099999997    1.002679199    1.501532636    -0.005031    -0.063484    0.02203
F    -0.912722168    -1.5395182829999998    0.874173514    -0.027649    -0.027693    -0.046851
