      12
SCF Done            -187.24415174
Al            0.370585693        -0.579903358         1.734228239
Al            2.342377765        -1.807970672        -0.531053397
Al           -0.905545081        -1.830350658        -0.974129143
F             3.472991007        -0.524741893        -1.142327480
F            -1.844043454        -0.566462688        -1.875579497
F             2.719107495        -3.580655494        -0.488892843
F            -1.248687166        -3.611789402        -1.036076320
F             1.905222597        -1.413046793         1.201202402
F             0.819473664        -1.523640082        -1.490082265
F             0.135680352        -1.139580963         3.444924689
F             0.430682071         1.146324199         1.177715636
F            -0.955938168        -1.435497283         0.806630514
