12
Properties=species:S:1:pos:R:3:forces:R:3 energy=-179.85437940 pbc="F F F"
Al    -0.658939838    0.96800596    -1.900701536    -9.485465    -2.08472    -1.821066
Al    -0.481390714    1.066716253    1.262960636    -2.02517    -0.460843    -1.214215
Al    -3.671728319    0.31559688900000005    -1.968328742    -8.205335    -1.916709    -7.517739
F    -3.435301661    0.351681608    -2.755403108    1.610771    0.585096    12.425081
F    -1.228861757    -0.47693470099999996    -1.837284045    3.669709    2.645367    0.107226
F    -1.774995487    2.0500764030000003    -1.885479583    4.433493    -0.888736    0.17463
F    -1.9894195250000002    0.7257927390000001    0.475857024    1.585641    0.360223    0.919474
F    0.687400327    1.292978443    -0.11784731100000001    1.698296    0.435927    3.612263
F    -0.297441975    2.760789797    1.996246947    0.285009    0.755609    0.099816
F    0.379697315    -0.372396858    2.056001645    0.570712    -0.566374    0.125024
F    -3.7736080920000004    0.30629347    -1.301718965    4.225908    0.80745    -5.549756
F    0.843896427    1.265570537    -3.328263629    1.63643    0.327711    -1.360739
