12
Properties=species:S:1:pos:R:3:forces:R:3 energy=-186.70852358 pbc="F F F"
Al    0.34089119300000004    -0.603178158    1.727909239    -0.709985    0.044642    -0.363061
Al    2.567127365    -1.669127372    -0.24418299699999998    0.116689    0.497484    1.461581
Al    -0.576270981    -2.065734758    -1.143995643    1.53439    -0.310515    -0.685499
F    3.364114207    -0.464695293    -1.4609621799999999    0.130554    0.306465    -0.779689
F    -1.806763854    -0.610387388    -1.351449597    -0.6696    0.520168    0.299017
F    2.473587395    -3.5108516940000003    -0.674623643    -0.203072    -0.55857    -0.465366
F    -1.539377566    -3.681670202    -1.0536052200000001    -0.500238    -0.417055    0.313094
F    1.890955997    -1.7672758929999999    1.539267902    0.061452    -0.3081    0.225353
F    1.104782164    -1.458011882    -1.4053736650000002    0.004557    -0.052008    -0.028701
F    0.130408252    -1.204501563    3.4435647890000003    0.292862    -0.083082    0.211568
F    0.05122107100000001    1.126426799    1.045914136    -0.058586    0.049398    -0.038662
F    -0.859260868    -0.935337383    0.382887814    0.000976    0.311173    -0.149633
