      12
SCF Done            -186.70852358
Al            0.233624193        -0.600805158         1.723514239
Al            2.440386365        -1.738274372        -0.354141997
Al           -0.758339981        -1.877984758        -1.124572643
F             3.453739207        -0.499595293        -1.270884180
F            -1.901308854        -0.562415388        -1.741339597
F             2.660182395        -3.555148694        -0.595248643
F            -1.329062566        -3.622736202        -0.991975220
F             1.847338997        -1.471633893         1.349102902
F             0.969769164        -1.506720882        -1.469175665
F             0.189735252        -1.171323563         3.455042789
F             0.385465071         1.134888799         1.195558136
F            -0.970378868        -1.395780383         0.647661814
