12
Properties=species:S:1:pos:R:3:forces:R:3 energy=-173.48202996 pbc="F F F"
Al    -0.20266423799999997    1.0720243600000001    -1.617158136    -1.935668    -0.243079    9.189232
Al    -0.255503114    1.1103466530000001    0.990943636    8.614556    1.29286    -29.829636
Al    -2.956476119    0.473269289    -1.806578942    -1.36558    -0.302055    -0.363383
F    -3.543889061    0.312218408    -3.5938845080000004    -0.500067    -0.13917    -1.630378
F    -1.4710071569999998    0.02741669899999999    -1.725083645    4.782852    5.624757    0.691926
F    -1.788223087    1.4952004030000001    -1.7530785830000002    6.672635    -3.119439    0.858699
F    -1.850703325    0.746211739    -0.025265576000000012    -0.437776    -0.067082    1.443385
F    0.08346732700000001    1.1639422430000002    -0.040014111000000005    -10.444344    -1.975623    14.765182
F    -0.23034617500000004    2.644997597    1.9136887470000001    -0.3935    -1.468406    0.016606
F    0.393656115    -0.24232525800000002    1.9687548449999999    -0.96469    1.174549    -0.0338
F    -4.415775892    0.18113567    -0.587070565    -1.347751    -0.263016    1.481678
F    0.568974627    1.2112237369999999    -3.062420029    -2.680667    -0.514296    3.41049
