12
-187.24475565
Al		0.349245585		-0.599319978		1.740358127
Al		2.350725123		-1.788847434		-0.51921739
Al		-0.892607772		-1.83028775		-0.992119546
F		3.477585221		-0.498544733		-1.114838663
F		-1.833921241		-0.562294339		-1.884093931
F		2.735058567		-3.562829707		-0.488907002
F		-1.227180473		-3.612785215		-1.072566569
F		1.898188756		-1.411265912		1.21047192
F		0.832120014		-1.508488902		-1.489228525
F		0.110359861		-1.172342841		3.443479241
F		0.402019669		1.135101576		1.197969602
F		-0.959686929		-1.455357881		0.795258352
