12
-187.24475565
Al		0.349207424		-0.599320468		1.740352568
Al		2.350747299		-1.788857792		-0.51919378
Al		-0.892580051		-1.830276751		-0.992135887
F		3.477727872		-0.498766127		-1.115044609
F		-1.83384888		-0.562070184		-1.883856662
F		2.734880685		-3.56287851		-0.488611243
F		-1.227267763		-3.612739818		-1.072900959
F		1.898335632		-1.41089457		1.210436972
F		0.832150999		-1.508488504		-1.489224011
F		0.110504672		-1.172340981		3.443500337
F		0.401593078		1.135096097		1.197907455
F		-0.959546835		-1.455725537		0.795335106
