12
-187.24475565
Al		0.349092941		-0.599321938		1.740335891
Al		2.350813827		-1.788888866		-0.51912295
Al		-0.892496888		-1.830243754		-0.99218491
F		3.478155825		-0.499430309		-1.115662447
F		-1.833631797		-0.561397719		-1.883144855
F		2.734347039		-3.563024919		-0.487723966
F		-1.227529633		-3.612603627		-1.073904129
F		1.89877626		-1.409780544		1.210332128
F		0.832243954		-1.50848731		-1.489210469
F		0.110939105		-1.172335401		3.443563625
F		0.400313305		1.13507966		1.197721014
F		-0.959126553		-1.456828505		0.795565368
