12
-187.24475565
Al		0.348940297		-0.599323898		1.740313655
Al		2.350902531		-1.788930298		-0.51902851
Al		-0.892386004		-1.830199758		-0.992250274
F		3.478726429		-0.500315885		-1.116486231
F		-1.833342353		-0.560501099		-1.882195779
F		2.733635511		-3.563220131		-0.48654093
F		-1.227878793		-3.612422039		-1.075241689
F		1.899363764		-1.408295176		1.210192336
F		0.832367894		-1.508485718		-1.489192413
F		0.111518349		-1.172327961		3.443648009
F		0.398606941		1.135057744		1.197472426
F		-0.958566177		-1.458299129		0.795872384
