12
-187.24475565
Al		0.348825814		-0.599325368		1.740296978
Al		2.350969059		-1.788961372		-0.51895768
Al		-0.892302841		-1.830166761		-0.992299297
F		3.479154382		-0.500980067		-1.117104069
F		-1.83312527		-0.559828634		-1.881483972
F		2.733101865		-3.56336654		-0.485653653
F		-1.228140663		-3.612285848		-1.076244859
F		1.899804392		-1.40718115		1.210087492
F		0.832460849		-1.508484524		-1.489178871
F		0.111952782		-1.172322381		3.443711297
F		0.397327168		1.135041307		1.197285985
F		-0.958145895		-1.459402097		0.796102646
