12
-187.24475565
Al		0.348711331		-0.599326838		1.740280301
Al		2.351035587		-1.788992446		-0.51888685
Al		-0.892219678		-1.830133764		-0.99234832
F		3.479582335		-0.501644249		-1.117721907
F		-1.832908187		-0.559156169		-1.880772165
F		2.732568219		-3.563512949		-0.484766376
F		-1.228402533		-3.612149657		-1.077248029
F		1.90024502		-1.406067124		1.209982648
F		0.832553804		-1.50848333		-1.489165329
F		0.112387215		-1.172316801		3.443774585
F		0.396047395		1.13502487		1.197099544
F		-0.957725613		-1.460505065		0.796332908
