12
-187.24475565
Al		0.34867317		-0.599327328		1.740274742
Al		2.351057763		-1.789002804		-0.51886324
Al		-0.892191957		-1.830122765		-0.992364661
F		3.479724986		-0.501865643		-1.117927853
F		-1.832835826		-0.558932014		-1.880534896
F		2.732390337		-3.563561752		-0.484470617
F		-1.228489823		-3.61210426		-1.077582419
F		1.900391896		-1.405695782		1.2099477
F		0.832584789		-1.508482932		-1.489160815
F		0.112532026		-1.172314941		3.443795681
F		0.395620804		1.135019391		1.197037397
F		-0.957585519		-1.460872721		0.796409662
