12
-187.24475565
Al		0.348482365		-0.599329778		1.740246947
Al		2.351168643		-1.789054594		-0.51874519
Al		-0.892053352		-1.83006777		-0.992446366
F		3.480438241		-0.502972613		-1.118957583
F		-1.832474021		-0.557811239		-1.879348551
F		2.731500927		-3.563805767		-0.482991822
F		-1.228926273		-3.611877275		-1.079254369
F		1.901126276		-1.403839072		1.20977296
F		0.832739714		-1.508480942		-1.489138245
F		0.113256081		-1.172305641		3.443901161
F		0.393487849		1.134991996		1.196726662
F		-0.956885049		-1.462711001		0.796793432
