12
-187.24475565
Al		0.348367882		-0.599331248		1.74023027
Al		2.351235171		-1.789085668		-0.51867436
Al		-0.891970189		-1.830034773		-0.992495389
F		3.480866194		-0.503636795		-1.119575421
F		-1.832256938		-0.557138774		-1.878636744
F		2.730967281		-3.563952176		-0.482104545
F		-1.229188143		-3.611741084		-1.080257539
F		1.901566904		-1.402725046		1.209668116
F		0.832832669		-1.508479748		-1.489124703
F		0.113690514		-1.172300061		3.443964449
F		0.392208076		1.134975559		1.196540221
F		-0.956464767		-1.463813969		0.797023694
