12
-187.24475565
Al		0.34829156		-0.599332228		1.740219152
Al		2.351279523		-1.789106384		-0.51862714
Al		-0.891914747		-1.830012775		-0.992528071
F		3.481151496		-0.504079583		-1.119987313
F		-1.832112216		-0.556690464		-1.878162206
F		2.730611517		-3.564049782		-0.481513027
F		-1.229362723		-3.61165029		-1.080926319
F		1.901860656		-1.401982362		1.20959822
F		0.832894639		-1.508478952		-1.489115675
F		0.113980136		-1.172296341		3.444006641
F		0.391354894		1.134964601		1.196415927
F		-0.956184579		-1.464549281		0.797177202
