12
-187.24475565
Al		0.348177077		-0.599333698		1.740202475
Al		2.351346051		-1.789137458		-0.51855631
Al		-0.891831584		-1.829979778		-0.992577094
F		3.481579449		-0.504743765		-1.120605151
F		-1.831895133		-0.556017999		-1.877450399
F		2.730077871		-3.564196191		-0.48062575
F		-1.229624593		-3.611514099		-1.081929489
F		1.902301284		-1.400868336		1.209493376
F		0.832987594		-1.508477758		-1.489102133
F		0.114414569		-1.172290761		3.444069929
F		0.390075121		1.134948164		1.196229486
F		-0.955764297		-1.465652249		0.797407464
