12
-187.24475565
Al		0.349474551		-0.599317038		1.740391481
Al		2.350592067		-1.788785286		-0.51935905
Al		-0.892774098		-1.830353744		-0.9920215
F		3.476729315		-0.497216369		-1.113602987
F		-1.834355407		-0.563639269		-1.885517545
F		2.736125859		-3.562536889		-0.490681556
F		-1.226656733		-3.613057597		-1.070560229
F		1.8973075		-1.413493964		1.210681608
F		0.831934104		-1.50849129		-1.489255609
F		0.109490995		-1.172354001		3.443352665
F		0.404579215		1.13513445		1.198342484
F		-0.960527493		-1.453151945		0.794797828
