12
-187.24475565
Al		0.348062594		-0.599335168		1.740185798
Al		2.351412579		-1.789168532		-0.51848548
Al		-0.891748421		-1.829946781		-0.992626117
F		3.482007402		-0.505407947		-1.121222989
F		-1.83167805		-0.555345534		-1.876738592
F		2.729544225		-3.5643426		-0.479738473
F		-1.229886463		-3.611377908		-1.082932659
F		1.902741912		-1.39975431		1.209388532
F		0.833080549		-1.508476564		-1.489088591
F		0.114849002		-1.172285181		3.444133217
F		0.388795348		1.134931727		1.196043045
F		-0.955344015		-1.466755217		0.797637726
