12
-187.24475565
Al		0.347948111		-0.599336638		1.740169121
Al		2.351479107		-1.789199606		-0.51841465
Al		-0.891665258		-1.829913784		-0.99267514
F		3.482435355		-0.506072129		-1.121840827
F		-1.831460967		-0.554673069		-1.876026785
F		2.729010579		-3.564489009		-0.478851196
F		-1.230148333		-3.611241717		-1.083935829
F		1.90318254		-1.398640284		1.209283688
F		0.833173504		-1.50847537		-1.489075049
F		0.115283435		-1.172279601		3.444196505
F		0.387515575		1.13491529		1.195856604
F		-0.954923733		-1.467858185		0.797867988
