12
-187.24475565
Al		0.34790995		-0.599337128		1.740163562
Al		2.351501283		-1.789209964		-0.51839104
Al		-0.891637537		-1.829902785		-0.992691481
F		3.482578006		-0.506293523		-1.122046773
F		-1.831388606		-0.554448914		-1.875789516
F		2.728832697		-3.564537812		-0.478555437
F		-1.230235623		-3.61119632		-1.084270219
F		1.903329416		-1.398268942		1.20924874
F		0.833204489		-1.508474972		-1.489070535
F		0.115428246		-1.172277741		3.444217601
F		0.387088984		1.134909811		1.195794457
F		-0.954783639		-1.468225841		0.797944742
