12
-187.24475565
Al		0.347795467		-0.599338598		1.740146885
Al		2.351567811		-1.789241038		-0.51832021
Al		-0.891554374		-1.829869788		-0.992740504
F		3.483005959		-0.506957705		-1.122664611
F		-1.831171523		-0.553776449		-1.875077709
F		2.728299051		-3.564684221		-0.47766816
F		-1.230497493		-3.611060129		-1.085273389
F		1.903770044		-1.397154916		1.209143896
F		0.833297444		-1.508473778		-1.489056993
F		0.115862679		-1.172272161		3.444280889
F		0.385809211		1.134893374		1.195608016
F		-0.954363357		-1.469328809		0.798175004
