12
-187.24475565
Al		0.347757306		-0.599339088		1.740141326
Al		2.351589987		-1.789251396		-0.5182966
Al		-0.891526653		-1.829858789		-0.992756845
F		3.48314861		-0.507179099		-1.122870557
F		-1.831099162		-0.553552294		-1.87484044
F		2.728121169		-3.564733024		-0.477372401
F		-1.230584783		-3.611014732		-1.085607779
F		1.90391692		-1.396783574		1.209108948
F		0.833328429		-1.50847338		-1.489052479
F		0.11600749		-1.172270301		3.444301985
F		0.38538262		1.134887895		1.195545869
F		-0.954223263		-1.469696465		0.798251758
