12
-187.24475565
Al		0.347413857		-0.599343498		1.740091295
Al		2.351789571		-1.789344618		-0.51808411
Al		-0.891277164		-1.829759798		-0.992903914
F		3.484432469		-0.509171645		-1.124724071
F		-1.830447913		-0.551534899		-1.872705019
F		2.726520231		-3.565172251		-0.47471057
F		-1.231370393		-3.610606159		-1.088617289
F		1.905238804		-1.393441496		1.208794416
F		0.833607294		-1.508469798		-1.489011853
F		0.117310789		-1.172253561		3.444491849
F		0.381543301		1.134838584		1.194986546
F		-0.952962417		-1.473005369		0.798942544
