12
-187.24475565
Al		0.347299374		-0.599344968		1.740074618
Al		2.351856099		-1.789375692		-0.51801328
Al		-0.891194001		-1.829726801		-0.992952937
F		3.484860422		-0.509835827		-1.125341909
F		-1.83023083		-0.550862434		-1.871993212
F		2.725986585		-3.56531866		-0.473823293
F		-1.231632263		-3.610469968		-1.089620459
F		1.905679432		-1.39232747		1.208689572
F		0.833700249		-1.508468604		-1.488998311
F		0.117745222		-1.172247981		3.444555137
F		0.380263528		1.134822147		1.194800105
F		-0.952542135		-1.474108337		0.799172806
