12
-187.24475565
Al		0.347223052		-0.599345948		1.7400635
Al		2.351900451		-1.789396408		-0.51796606
Al		-0.891138559		-1.829704803		-0.992985619
F		3.485145724		-0.510278615		-1.125753801
F		-1.830086108		-0.550414124		-1.871518674
F		2.725630821		-3.565416266		-0.473231775
F		-1.231806843		-3.610379174		-1.090289239
F		1.905973184		-1.391584786		1.208619676
F		0.833762219		-1.508467808		-1.488989283
F		0.118034844		-1.172244261		3.444597329
F		0.379410346		1.134811189		1.194675811
F		-0.952261947		-1.474843649		0.799326314
