12
-187.24475565
Al		0.349360068		-0.599318508		1.740374804
Al		2.350658595		-1.78881636		-0.51928822
Al		-0.892690935		-1.830320747		-0.992070523
F		3.477157268		-0.497880551		-1.114220825
F		-1.834138324		-0.562966804		-1.884805738
F		2.735592213		-3.562683298		-0.489794279
F		-1.226918603		-3.612921406		-1.071563399
F		1.897748128		-1.412379938		1.210576764
F		0.832027059		-1.508490096		-1.489242067
F		0.109925428		-1.172348421		3.443415953
F		0.403299442		1.135118013		1.198156043
F		-0.960107211		-1.454254913		0.79502809
