12
-187.24475565
Al		0.346841442		-0.599350848		1.74000791
Al		2.352122211		-1.789499988		-0.51772996
Al		-0.890861349		-1.829594813		-0.993149029
F		3.486572234		-0.512492555		-1.127813261
F		-1.829362498		-0.548172574		-1.869145984
F		2.723852001		-3.565904296		-0.470274185
F		-1.232679743		-3.609925204		-1.093633139
F		1.907441944		-1.387871366		1.208270196
F		0.834072069		-1.508463828		-1.488944143
F		0.119482954		-1.172225661		3.444808289
F		0.375144436		1.134756399		1.194054341
F		-0.950861007		-1.478520209		0.800093854
