12
-187.24475565
Al		0.34676512		-0.599351828		1.739996792
Al		2.352166563		-1.789520704		-0.51768274
Al		-0.890805907		-1.829572815		-0.993181711
F		3.486857536		-0.512935343		-1.128225153
F		-1.829217776		-0.547724264		-1.868671446
F		2.723496237		-3.566001902		-0.469682667
F		-1.232854323		-3.60983441		-1.094301919
F		1.907735696		-1.387128682		1.2082003
F		0.834134039		-1.508463032		-1.488935115
F		0.119772576		-1.172221941		3.444850481
F		0.374291254		1.134745441		1.193930047
F		-0.950580819		-1.479255521		0.800247362
