12
-187.24475565
Al		0.346726959		-0.599352318		1.739991233
Al		2.352188739		-1.789531062		-0.51765913
Al		-0.890778186		-1.829561816		-0.993198052
F		3.487000187		-0.513156737		-1.128431099
F		-1.829145415		-0.547500109		-1.868434177
F		2.723318355		-3.566050705		-0.469386908
F		-1.232941613		-3.609789013		-1.094636309
F		1.907882572		-1.38675734		1.208165352
F		0.834165024		-1.508462634		-1.488930601
F		0.119917387		-1.172220081		3.444871577
F		0.373864663		1.134739962		1.1938679
F		-0.950440725		-1.479623177		0.800324116
