12
-187.24475565
Al		0.349321907		-0.599318998		1.740369245
Al		2.350680771		-1.788826718		-0.51926461
Al		-0.892663214		-1.830309748		-0.992086864
F		3.477299919		-0.498101945		-1.114426771
F		-1.834065963		-0.562742649		-1.884568469
F		2.735414331		-3.562732101		-0.48949852
F		-1.227005893		-3.612876009		-1.071897789
F		1.897895004		-1.412008596		1.210541816
F		0.832058044		-1.508489698		-1.489237553
F		0.110070239		-1.172346561		3.443437049
F		0.402872851		1.135112534		1.198093896
F		-0.959967117		-1.454622569		0.795104844
