12
-187.24475565
Al		0.346574315		-0.599354278		1.739968997
Al		2.352277443		-1.789572494		-0.51756469
Al		-0.890667302		-1.82951782		-0.993263416
F		3.487570791		-0.514042313		-1.129254883
F		-1.828855971		-0.546603489		-1.867485101
F		2.722606827		-3.566245917		-0.468203872
F		-1.233290773		-3.609607425		-1.095973869
F		1.908470076		-1.385271972		1.20802556
F		0.834288964		-1.508461042		-1.488912545
F		0.120496631		-1.172212641		3.444955961
F		0.372158299		1.134718046		1.193619312
F		-0.949880349		-1.481093801		0.800631132
