12
-187.24475565
Al		0.346040061		-0.599361138		1.739891171
Al		2.352587907		-1.789717506		-0.51723415
Al		-0.890279208		-1.829363834		-0.99349219
F		3.489567905		-0.517141829		-1.132138127
F		-1.827842917		-0.543465319		-1.864163335
F		2.720116479		-3.566929159		-0.464063246
F		-1.234512833		-3.608971867		-1.100655329
F		1.91052634		-1.380073184		1.207536288
F		0.834722754		-1.50845547		-1.488849349
F		0.122523985		-1.172186601		3.445251305
F		0.366186025		1.13464134		1.192749254
F		-0.947919033		-1.486240985		0.801705688
