12
-187.24475565
Al		0.3460019		-0.599361628		1.739885612
Al		2.352610083		-1.789727864		-0.51721054
Al		-0.890251487		-1.829352835		-0.993508531
F		3.489710556		-0.517363223		-1.132344073
F		-1.827770556		-0.543241164		-1.863926066
F		2.719938597		-3.566977962		-0.463767487
F		-1.234600123		-3.60892647		-1.100989719
F		1.910673216		-1.379701842		1.20750134
F		0.834753739		-1.508455072		-1.488844835
F		0.122668796		-1.172184741		3.445272401
F		0.365759434		1.134635861		1.192687107
F		-0.947778939		-1.486608641		0.801782442
