12
-187.24475565
Al		0.345963739		-0.599362118		1.739880053
Al		2.352632259		-1.789738222		-0.51718693
Al		-0.890223766		-1.829341836		-0.993524872
F		3.489853207		-0.517584617		-1.132550019
F		-1.827698195		-0.543017009		-1.863688797
F		2.719760715		-3.567026765		-0.463471728
F		-1.234687413		-3.608881073		-1.101324109
F		1.910820092		-1.3793305		1.207466392
F		0.834784724		-1.508454674		-1.488840321
F		0.122813607		-1.172182881		3.445293497
F		0.365332843		1.134630382		1.19262496
F		-0.947638845		-1.486976297		0.801859196
