12
-187.24475565
Al		0.345925578		-0.599362608		1.739874494
Al		2.352654435		-1.78974858		-0.51716332
Al		-0.890196045		-1.829330837		-0.993541213
F		3.489995858		-0.517806011		-1.132755965
F		-1.827625834		-0.542792854		-1.863451528
F		2.719582833		-3.567075568		-0.463175969
F		-1.234774703		-3.608835676		-1.101658499
F		1.910966968		-1.378959158		1.207431444
F		0.834815709		-1.508454276		-1.488835807
F		0.122958418		-1.172181021		3.445314593
F		0.364906252		1.134624903		1.192562813
F		-0.947498751		-1.487343953		0.80193595
