12
-187.24475565
Al		0.349665356		-0.599314588		1.740419276
Al		2.350481187		-1.788733496		-0.5194771
Al		-0.892912703		-1.830408739		-0.991939795
F		3.47601606		-0.496109399		-1.112573257
F		-1.834717212		-0.564760044		-1.88670389
F		2.737015269		-3.562292874		-0.492160351
F		-1.226220283		-3.613284582		-1.068888279
F		1.89657312		-1.415350674		1.210856348
F		0.831779179		-1.50849328		-1.489278179
F		0.10876694		-1.172363301		3.443247185
F		0.40671217		1.135161845		1.198653219
F		-0.961227963		-1.451313665		0.794414058
