12
-187.24475565
Al		0.350314093		-0.599306258		1.740513779
Al		2.350104195		-1.78855741		-0.51987847
Al		-0.89338396		-1.830595722		-0.991661998
F		3.473590993		-0.492345701		-1.109072175
F		-1.835947349		-0.568570679		-1.890737463
F		2.740039263		-3.561463223		-0.497188254
F		-1.224736353		-3.614056331		-1.063203649
F		1.894076228		-1.421663488		1.211450464
F		0.831252434		-1.508500046		-1.489354917
F		0.106305153		-1.172394921		3.442888553
F		0.413964217		1.135254988		1.199709718
F		-0.963609561		-1.445063513		0.79310924
