12
-187.24475565
Al		0.350352254		-0.599305768		1.740519338
Al		2.350082019		-1.788547052		-0.51990208
Al		-0.893411681		-1.830606721		-0.991645657
F		3.473448342		-0.492124307		-1.108866229
F		-1.83601971		-0.568794834		-1.890974732
F		2.740217145		-3.56141442		-0.497484013
F		-1.224649063		-3.614101728		-1.062869259
F		1.893929352		-1.42203483		1.211485412
F		0.831221449		-1.508500444		-1.489359431
F		0.106160342		-1.172396781		3.442867457
F		0.414390808		1.135260467		1.199771865
F		-0.963749655		-1.444695857		0.793032486
