12
-187.24475565
Al		0.350466737		-0.599304298		1.740536015
Al		2.350015491		-1.788515978		-0.51997291
Al		-0.893494844		-1.830639718		-0.991596634
F		3.473020389		-0.491460125		-1.108248391
F		-1.836236793		-0.569467299		-1.891686539
F		2.740750791		-3.561268011		-0.49837129
F		-1.224387193		-3.614237919		-1.061866089
F		1.893488724		-1.423148856		1.211590256
F		0.831128494		-1.508501638		-1.489372973
F		0.105725909		-1.172402361		3.442804169
F		0.415670581		1.135276904		1.199958306
F		-0.964169937		-1.443592889		0.792802224
