12
-187.24475565
Al		0.350543059		-0.599303318		1.740547133
Al		2.349971139		-1.788495262		-0.52002013
Al		-0.893550286		-1.830661716		-0.991563952
F		3.472735087		-0.491017337		-1.107836499
F		-1.836381515		-0.569915609		-1.892161077
F		2.741106555		-3.561170405		-0.498962808
F		-1.224212613		-3.614328713		-1.061197309
F		1.893194972		-1.42389154		1.211660152
F		0.831066524		-1.508502434		-1.489382001
F		0.105436287		-1.172406081		3.442761977
F		0.416523763		1.135287862		1.2000826
F		-0.964450125		-1.442857577		0.792648716
