12
-187.24475565
Al		0.349741678		-0.599313608		1.740430394
Al		2.350436835		-1.78871278		-0.51952432
Al		-0.892968145		-1.830430737		-0.991907113
F		3.475730758		-0.495666611		-1.112161365
F		-1.834861934		-0.565208354		-1.887178428
F		2.737371033		-3.562195268		-0.492751869
F		-1.226045703		-3.613375376		-1.068219499
F		1.896279368		-1.416093358		1.210926244
F		0.831717209		-1.508494076		-1.489287207
F		0.108477318		-1.172367021		3.443204993
F		0.407565352		1.135172803		1.198777513
F		-0.961508151		-1.450578353		0.79426055
