12
-187.24475565
Al		0.350924669		-0.599298418		1.740602723
Al		2.349749379		-1.788391682		-0.52025623
Al		-0.893827496		-1.830771706		-0.991400542
F		3.471308577		-0.488803397		-1.105777039
F		-1.837105125		-0.572157159		-1.894533767
F		2.742885375		-3.560682375		-0.501920398
F		-1.223339713		-3.614782683		-1.057853409
F		1.891726212		-1.42760496		1.212009632
F		0.830756674		-1.508506414		-1.489427141
F		0.103988177		-1.172424681		3.442551017
F		0.420789673		1.135342652		1.20070407
F		-0.965851065		-1.439181017		0.791881176
