12
-187.24475565
Al		0.351077313		-0.599296458		1.740624959
Al		2.349660675		-1.78835025		-0.52035067
Al		-0.89393838		-1.830815702		-0.991335178
F		3.470737973		-0.487917821		-1.104953255
F		-1.837394569		-0.573053779		-1.895482843
F		2.743596903		-3.560487163		-0.503103434
F		-1.222990553		-3.614964271		-1.056515849
F		1.891138708		-1.429090328		1.212149424
F		0.830632734		-1.508508006		-1.489445197
F		0.103408933		-1.172432121		3.442466633
F		0.422496037		1.135364568		1.200952658
F		-0.966411441		-1.437710393		0.79157416
