12
-187.24475565
Al		0.351153635		-0.599295478		1.740636077
Al		2.349616323		-1.788329534		-0.52039789
Al		-0.893993822		-1.8308377		-0.991302496
F		3.470452671		-0.487475033		-1.104541363
F		-1.837539291		-0.573502089		-1.895957381
F		2.743952667		-3.560389557		-0.503694952
F		-1.222815973		-3.615055065		-1.055847069
F		1.890844956		-1.429833012		1.21221932
F		0.830570764		-1.508508802		-1.489454225
F		0.103119311		-1.172435841		3.442424441
F		0.423349219		1.135375526		1.201076952
F		-0.966691629		-1.436975081		0.791420652
