12
-187.24475565
Al		0.351191796		-0.599294988		1.740641636
Al		2.349594147		-1.788319176		-0.5204215
Al		-0.894021543		-1.830848699		-0.991286155
F		3.47031002		-0.487253639		-1.104335417
F		-1.837611652		-0.573726244		-1.89619465
F		2.744130549		-3.560340754		-0.503990711
F		-1.222728683		-3.615100462		-1.055512679
F		1.89069808		-1.430204354		1.212254268
F		0.830539779		-1.5085092		-1.489458739
F		0.1029745		-1.172437701		3.442403345
F		0.42377581		1.135381005		1.201139099
F		-0.966831723		-1.436607425		0.791343898
