12
-187.24475565
Al		0.351229957		-0.599294498		1.740647195
Al		2.349571971		-1.788308818		-0.52044511
Al		-0.894049264		-1.830859698		-0.991269814
F		3.470167369		-0.487032245		-1.104129471
F		-1.837684013		-0.573950399		-1.896431919
F		2.744308431		-3.560291951		-0.50428647
F		-1.222641393		-3.615145859		-1.055178289
F		1.890551204		-1.430575696		1.212289216
F		0.830508794		-1.508509598		-1.489463253
F		0.102829689		-1.172439561		3.442382249
F		0.424202401		1.135386484		1.201201246
F		-0.966971817		-1.436239769		0.791267144
