12
-187.24475565
Al		0.351268118		-0.599294008		1.740652754
Al		2.349549795		-1.78829846		-0.52046872
Al		-0.894076985		-1.830870697		-0.991253473
F		3.470024718		-0.486810851		-1.103923525
F		-1.837756374		-0.574174554		-1.896669188
F		2.744486313		-3.560243148		-0.504582229
F		-1.222554103		-3.615191256		-1.054843899
F		1.890404328		-1.430947038		1.212324164
F		0.830477809		-1.508509996		-1.489467767
F		0.102684878		-1.172441421		3.442361153
F		0.424628992		1.135391963		1.201263393
F		-0.967111911		-1.435872113		0.79119039
