12
-187.24475565
Al		0.351306279		-0.599293518		1.740658313
Al		2.349527619		-1.788288102		-0.52049233
Al		-0.894104706		-1.830881696		-0.991237132
F		3.469882067		-0.486589457		-1.103717579
F		-1.837828735		-0.574398709		-1.896906457
F		2.744664195		-3.560194345		-0.504877988
F		-1.222466813		-3.615236653		-1.054509509
F		1.890257452		-1.43131838		1.212359112
F		0.830446824		-1.508510394		-1.489472281
F		0.102540067		-1.172443281		3.442340057
F		0.425055583		1.135397442		1.20132554
F		-0.967252005		-1.435504457		0.791113636
