12
-187.24475565
Al		0.351458923		-0.599291558		1.740680549
Al		2.349438915		-1.78824667		-0.52058677
Al		-0.89421559		-1.830925692		-0.991171768
F		3.469311463		-0.485703881		-1.102893795
F		-1.838118179		-0.575295329		-1.897855533
F		2.745375723		-3.559999133		-0.506061024
F		-1.222117653		-3.615418241		-1.053171949
F		1.889669948		-1.432803748		1.212498904
F		0.830322884		-1.508511986		-1.489490337
F		0.101960823		-1.172450721		3.442255673
F		0.426761947		1.135419358		1.201574128
F		-0.967812381		-1.434033833		0.79080662
