12
-187.24475565
Al		0.351497084		-0.599291068		1.740686108
Al		2.349416739		-1.788236312		-0.52061038
Al		-0.894243311		-1.830936691		-0.991155427
F		3.469168812		-0.485482487		-1.102687849
F		-1.83819054		-0.575519484		-1.898092802
F		2.745553605		-3.55995033		-0.506356783
F		-1.222030363		-3.615463638		-1.052837559
F		1.889523072		-1.43317509		1.212533852
F		0.830291899		-1.508512384		-1.489494851
F		0.101816012		-1.172452581		3.442234577
F		0.427188538		1.135424837		1.201636275
F		-0.967952475		-1.433666177		0.790729866
