12
-187.24475565
Al		0.349818		-0.599312628		1.740441512
Al		2.350392483		-1.788692064		-0.51957154
Al		-0.893023587		-1.830452735		-0.991874431
F		3.475445456		-0.495223823		-1.111749473
F		-1.835006656		-0.565656664		-1.887652966
F		2.737726797		-3.562097662		-0.493343387
F		-1.225871123		-3.61346617		-1.067550719
F		1.895985616		-1.416836042		1.21099614
F		0.831655239		-1.508494872		-1.489296235
F		0.108187696		-1.172370741		3.443162801
F		0.408418534		1.135183761		1.198901807
F		-0.961788339		-1.449843041		0.794107042
