12
-187.24475565
Al		0.351573406		-0.599290088		1.740697226
Al		2.349372387		-1.788215596		-0.5206576
Al		-0.894298753		-1.830958689		-0.991122745
F		3.46888351		-0.485039699		-1.102275957
F		-1.838335262		-0.575967794		-1.89856734
F		2.745909369		-3.559852724		-0.506948301
F		-1.221855783		-3.615554432		-1.052168779
F		1.88922932		-1.433917774		1.212603748
F		0.830229929		-1.50851318		-1.489503879
F		0.10152639		-1.172456301		3.442192385
F		0.42804172		1.135435795		1.201760569
F		-0.968232663		-1.432930865		0.790576358
