12
-187.24475565
Al		0.351649728		-0.599289108		1.740708344
Al		2.349328035		-1.78819488		-0.52070482
Al		-0.894354195		-1.830980687		-0.991090063
F		3.468598208		-0.484596911		-1.101864065
F		-1.838479984		-0.576416104		-1.899041878
F		2.746265133		-3.559755118		-0.507539819
F		-1.221681203		-3.615645226		-1.051499999
F		1.888935568		-1.434660458		1.212673644
F		0.830167959		-1.508513976		-1.489512907
F		0.101236768		-1.172460021		3.442150193
F		0.428894902		1.135446753		1.201884863
F		-0.968512851		-1.432195553		0.79042285
