12
-187.24475565
Al		0.351955016		-0.599285188		1.740752816
Al		2.349150627		-1.788112016		-0.5208937
Al		-0.894575963		-1.831068679		-0.990959335
F		3.467457		-0.482825759		-1.100216497
F		-1.839058872		-0.578209344		-1.90094003
F		2.747688189		-3.559364694		-0.509905891
F		-1.220982883		-3.616008402		-1.048824879
F		1.88776056		-1.437631194		1.212953228
F		0.829920079		-1.50851716		-1.489549019
F		0.10007828		-1.172474901		3.441981425
F		0.43230763		1.135490585		1.202382039
F		-0.969633603		-1.429254305		0.789808818
