12
-187.24475565
Al		0.351993177		-0.599284698		1.740758375
Al		2.349128451		-1.788101658		-0.52091731
Al		-0.894603684		-1.831079678		-0.990942994
F		3.467314349		-0.482604365		-1.100010551
F		-1.839131233		-0.578433499		-1.901177299
F		2.747866071		-3.559315891		-0.51020165
F		-1.220895593		-3.616053799		-1.048490489
F		1.887613684		-1.438002536		1.212988176
F		0.829889094		-1.508517558		-1.489553533
F		0.099933469		-1.172476761		3.441960329
F		0.432734221		1.135496064		1.202444186
F		-0.969773697		-1.428886649		0.789732064
