12
-187.24475565
Al		0.352031338		-0.599284208		1.740763934
Al		2.349106275		-1.7880913		-0.52094092
Al		-0.894631405		-1.831090677		-0.990926653
F		3.467171698		-0.482382971		-1.099804605
F		-1.839203594		-0.578657654		-1.901414568
F		2.748043953		-3.559267088		-0.510497409
F		-1.220808303		-3.616099196		-1.048156099
F		1.887466808		-1.438373878		1.213023124
F		0.829858109		-1.508517956		-1.489558047
F		0.099788658		-1.172478621		3.441939233
F		0.433160812		1.135501543		1.202506333
F		-0.969913791		-1.428518993		0.78965531
