12
-187.24475565
Al		0.352145821		-0.599282738		1.740780611
Al		2.349039747		-1.788060226		-0.52101175
Al		-0.894714568		-1.831123674		-0.99087763
F		3.466743745		-0.481718789		-1.099186767
F		-1.839420677		-0.579330119		-1.902126375
F		2.748577599		-3.559120679		-0.511384686
F		-1.220546433		-3.616235387		-1.047152929
F		1.88702618		-1.439487904		1.213127968
F		0.829765154		-1.50851915		-1.489571589
F		0.099354225		-1.172484201		3.441875945
F		0.434440585		1.13551798		1.202692774
F		-0.970334073		-1.427416025		0.789425048
