12
-187.24475565
Al		0.352183982		-0.599282248		1.74078617
Al		2.349017571		-1.788049868		-0.52103536
Al		-0.894742289		-1.831134673		-0.990861289
F		3.466601094		-0.481497395		-1.098980821
F		-1.839493038		-0.579554274		-1.902363644
F		2.748755481		-3.559071876		-0.511680445
F		-1.220459143		-3.616280784		-1.046818539
F		1.886879304		-1.439859246		1.213162916
F		0.829734169		-1.508519548		-1.489576103
F		0.099209414		-1.172486061		3.441854849
F		0.434867176		1.135523459		1.202754921
F		-0.970474167		-1.427048369		0.789348294
