12
-187.24475565
Al		0.349894322		-0.599311648		1.74045263
Al		2.350348131		-1.788671348		-0.51961876
Al		-0.893079029		-1.830474733		-0.991841749
F		3.475160154		-0.494781035		-1.111337581
F		-1.835151378		-0.566104974		-1.888127504
F		2.738082561		-3.562000056		-0.493934905
F		-1.225696543		-3.613556964		-1.066881939
F		1.895691864		-1.417578726		1.211066036
F		0.831593269		-1.508495668		-1.489305263
F		0.107898074		-1.172374461		3.443120609
F		0.409271716		1.135194719		1.199026101
F		-0.962068527		-1.449107729		0.793953534
