12
-187.24475565
Al		0.352412948		-0.599279308		1.740819524
Al		2.348884515		-1.78798772		-0.52117702
Al		-0.894908615		-1.831200667		-0.990763243
F		3.465745188		-0.480169031		-1.097745145
F		-1.839927204		-0.580899204		-1.903787258
F		2.749822773		-3.558779058		-0.513454999
F		-1.219935403		-3.616553166		-1.044812199
F		1.885998048		-1.442087298		1.213372604
F		0.829548259		-1.508521936		-1.489603187
F		0.098340548		-1.172497221		3.441728273
F		0.437426722		1.135556333		1.203127803
F		-0.971314731		-1.424842433		0.78888777
