12
-187.24475565
Al		0.352451109		-0.599278818		1.740825083
Al		2.348862339		-1.787977362		-0.52120063
Al		-0.894936336		-1.831211666		-0.990746902
F		3.465602537		-0.479947637		-1.097539199
F		-1.839999565		-0.581123359		-1.904024527
F		2.750000655		-3.558730255		-0.513750758
F		-1.219848113		-3.616598563		-1.044477809
F		1.885851172		-1.44245864		1.213407552
F		0.829517274		-1.508522334		-1.489607701
F		0.098195737		-1.172499081		3.441707177
F		0.437853313		1.135561812		1.20318995
F		-0.971454825		-1.424474777		0.788811016
