12
-187.24475565
Al		0.352527431		-0.599277838		1.740836201
Al		2.348817987		-1.787956646		-0.52124785
Al		-0.894991778		-1.831233664		-0.99071422
F		3.465317235		-0.479504849		-1.097127307
F		-1.840144287		-0.581571669		-1.904499065
F		2.750356419		-3.558632649		-0.514342276
F		-1.219673533		-3.616689357		-1.043809029
F		1.88555742		-1.443201324		1.213477448
F		0.829455304		-1.50852313		-1.489616729
F		0.097906115		-1.172502801		3.441664985
F		0.438706495		1.13557277		1.203314244
F		-0.971735013		-1.423739465		0.788657508
