12
-187.24475565
Al		0.352603753		-0.599276858		1.740847319
Al		2.348773635		-1.78793593		-0.52129507
Al		-0.89504722		-1.831255662		-0.990681538
F		3.465031933		-0.479062061		-1.096715415
F		-1.840289009		-0.582019979		-1.904973603
F		2.750712183		-3.558535043		-0.514933794
F		-1.219498953		-3.616780151		-1.043140249
F		1.885263668		-1.443944008		1.213547344
F		0.829393334		-1.508523926		-1.489625757
F		0.097616493		-1.172506521		3.441622793
F		0.439559677		1.135583728		1.203438538
F		-0.972015201		-1.423004153		0.788504
