12
-187.24475565
Al		0.352718236		-0.599275388		1.740863996
Al		2.348707107		-1.787904856		-0.5213659
Al		-0.895130383		-1.831288659		-0.990632515
F		3.46460398		-0.478397879		-1.096097577
F		-1.840506092		-0.582692444		-1.90568541
F		2.751245829		-3.558388634		-0.515821071
F		-1.219237083		-3.616916342		-1.042137079
F		1.88482304		-1.445058034		1.213652188
F		0.829300379		-1.50852512		-1.489639299
F		0.09718206		-1.172512101		3.441559505
F		0.44083945		1.135600165		1.203624979
F		-0.972435483		-1.421901185		0.788273738
