12
-187.24475565
Al		0.35287088		-0.599273428		1.740886232
Al		2.348618403		-1.787863424		-0.52146034
Al		-0.895241267		-1.831332655		-0.990567151
F		3.464033376		-0.477512303		-1.095273793
F		-1.840795536		-0.583589064		-1.906634486
F		2.751957357		-3.558193422		-0.517004107
F		-1.218887923		-3.61709793		-1.040799519
F		1.884235536		-1.446543402		1.21379198
F		0.829176439		-1.508526712		-1.489657355
F		0.096602816		-1.172519541		3.441475121
F		0.442545814		1.135622081		1.203873567
F		-0.972995859		-1.420430561		0.787966722
