12
-187.24475565
Al		0.349970644		-0.599310668		1.740463748
Al		2.350303779		-1.788650632		-0.51966598
Al		-0.893134471		-1.830496731		-0.991809067
F		3.474874852		-0.494338247		-1.110925689
F		-1.8352961		-0.566553284		-1.888602042
F		2.738438325		-3.56190245		-0.494526423
F		-1.225521963		-3.613647758		-1.066213159
F		1.895398112		-1.41832141		1.211135932
F		0.831531299		-1.508496464		-1.489314291
F		0.107608452		-1.172378181		3.443078417
F		0.410124898		1.135205677		1.199150395
F		-0.962348715		-1.448372417		0.793800026
