12
-187.24475565
Al		0.353099846		-0.599270488		1.740919586
Al		2.348485347		-1.787801276		-0.521602
Al		-0.895407593		-1.831398649		-0.990469105
F		3.46317747		-0.476183939		-1.094038117
F		-1.841229702		-0.584933994		-1.9080581
F		2.753024649		-3.557900604		-0.518778661
F		-1.218364183		-3.617370312		-1.038793179
F		1.88335428		-1.448771454		1.214001668
F		0.828990529		-1.5085291		-1.489684439
F		0.09573395		-1.172530701		3.441348545
F		0.44510536		1.135654955		1.204246449
F		-0.973836423		-1.418224625		0.787506198
