12
Properties=species:S:1:pos:R:3:forces:R:3 energy=-185.38669210 pbc="F F F"
Al    0.374887172    -2.292332811    -2.080966461    1.022467    1.835173    -0.941638
Al    2.02869293    -0.8417784559999999    -0.812382624    -0.761971    -0.525826    0.084503
Al    -0.284862206    0.536418303    -1.479747483    0.066201    -0.909973    0.507379
F    3.551727088    0.10250898399999997    -0.09510242299999999    0.480816    0.101826    -0.074336
F    -0.37307997400000004    -4.034977693    -1.967843036    -0.833063    -1.683158    0.546029
F    2.275620038    -1.496098876    -2.198464189    -0.006404    0.154987    0.061105
F    1.380163695    0.622705139    -2.15947582    0.004418    0.062985    0.081922
F    -1.619997222    1.473461731    -2.554921111    -0.196098    0.410657    -0.408726
F    -1.050027286    -1.061000852    -1.0766909690000002    0.099884    0.179994    0.010351
F    -0.15072197399999998    -1.219592309    -3.4095813809999997    0.060824    0.129448    0.094199
F    0.851576596    0.291521998    0.280803398    0.005956    0.043455    0.045295
F    0.888685734    -2.31310201    -0.204346173    0.056971    0.200433    -0.006083
