12
Properties=species:S:1:pos:R:3:forces:R:3 energy=-187.38518821 pbc="F F F"
Al    1.03577868    -0.15752768299999997    2.440703073    0.0    0.0    0.0
Al    1.3191069999999998    1.158758    -0.007469000000000003    0.0    0.0    -0.0
Al    -0.11864656200000001    1.07568125    -2.4020147730000003    0.0    0.0    -0.0
F    -1.582249172    -0.09303045300000001    -2.448946606    -0.0    -0.0    0.0
F    1.9479222530000002    -0.47409195299999995    0.783613452    0.0    -0.0    0.0
F    0.37875613900000005    2.08574829    -3.781902333    -0.0    -0.0    0.0
F    -0.23151481000000002    2.045721753    -0.774108049    -0.0    0.0    -0.0
F    2.714073557    2.330047512    -0.09489444300000002    0.0    0.0    -0.0
F    1.3351062390000001    0.106273405    -1.630145254    -0.0    -0.0    -0.0
F    0.381299117    1.465354429    1.6396510389999999    -0.0    -0.0    0.0
F    2.288534969    0.277093076    3.740351437    -0.0    -0.0    0.0
F    -0.28745232499999995    -1.3192673519999998    2.6510010709999996    -0.0    -0.0    -0.0
