12
Properties=species:S:1:pos:R:3:forces:R:3 energy=-186.99977922 pbc="F F F"
Al    1.06919368    0.016905116999999997    2.293296673    0.135159    0.299855    0.082634
Al    1.2578293999999999    1.5461996    -0.0177826    -1.085826    0.387438    0.428878
Al    -0.404629562    0.7409130500000001    -2.092189173    0.088839    0.322602    -0.055169
F    -1.418953772    -0.7924782530000001    -2.265849406    0.133038    -0.532318    -0.037122
F    1.594695653    -0.33889455300000004    0.549206852    -0.188786    -0.33028    -0.150418
F    0.267748139    1.84971369    -3.443180133    0.022579    -0.020824    -0.012768
F    -0.32383941    2.2688225529999997    -0.8194566489999999    0.019784    0.39092    -0.160747
F    2.9345173570000003    2.214934712    -0.470861243    0.721034    0.057433    -0.232835
F    1.0102650389999999    -0.051796194999999996    -1.189812054    -0.094852    -0.376425    0.129076
F    0.532408317    1.848194229    1.728385239    0.148667    0.327606    0.222758
F    2.512670969    0.746908476    3.236788637    0.023608    -0.021328    -0.00971
F    0.208959075    -1.592182152    2.578143271    0.076756    -0.504678    -0.204578
