      12
SCF Done            -186.99977922
Al            1.276358680         0.056261117         2.447151673
Al            1.170124400         1.313638600        -0.026701600
Al           -0.325370562         0.843102050        -2.318933173
F            -1.527075772        -0.537237253        -2.294586406
F             1.853326653        -0.357300553         0.692900852
F             0.054040139         1.815461690        -3.800106133
F            -0.356596410         2.126854553        -0.869822649
F             2.692389357         2.299054712        -0.375602243
F             1.131162039        -0.002542195        -1.455960054
F             0.522014317         1.695240229         1.744564239
F             2.548371969         0.590135476         3.622000637
F             0.164037075        -1.367988152         2.737463271
