12
Properties=species:S:1:pos:R:3:forces:R:3 energy=-185.74316198 pbc="F F F"
Al    0.5063603720000001    -2.250415011    -2.307996061    0.193202    0.24556    -0.259434
Al    1.9567147300000003    -0.548206656    -0.5986946240000001    -0.129436    -0.072909    0.098085
Al    -0.43857620599999997    0.30483370299999996    -1.578805883    -0.037934    -0.11878    0.156249
F    3.7290698879999997    -0.242950416    -0.210024823    0.072487    0.015946    -0.046645
F    -0.44415097400000003    -3.9865114929999996    -1.5514034360000002    -0.124338    -0.216169    0.111248
F    2.3059044380000002    -1.742655476    -2.391574789    -0.009072    0.018281    0.001383
F    1.392755895    0.526225939    -2.0620092199999998    0.003877    0.01837    0.011569
F    -1.4481410220000002    1.610112931    -2.413609311    -0.003584    0.051902    -0.088359
F    -1.0122280860000001    -1.393415852    -1.148061169    0.004676    0.029227    -0.002135
F    -0.12335697400000001    -0.8697271089999999    -3.396291581    0.014949    0.008694    0.011975
F    0.423452196    0.462296998    0.219803798    -0.002036    -0.004658    0.002957
F    1.042914334    -2.12176641    -0.298513173    0.017207    0.024539    0.003106
