      12
SCF Done            -167.18708321
Al           -0.033489013         1.671817972         2.040270020
Al            2.559358896         2.665582625         1.796735575
Al            1.386540084         2.732939784        -0.702146054
F             1.039698178         3.050928536         2.926670863
F            -1.633697483         2.566015122         2.283920386
F            -0.581367871         0.090992534         2.777240630
F             1.871384153         0.918409593         1.943778265
F             2.851052945         1.732272253        -0.053778016
F             1.067001809         3.020344133        -2.466007012
F             1.694627694         4.017605787         0.674014067
F             4.162046568         3.124070777         2.507473580
F             0.043054209         1.744009410         0.107364693
