      12
SCF Done            -185.95710398
Al           -0.033489057         1.671817996         2.040269921
Al            2.559358896         2.665582625         1.796735575
Al            1.386540058         2.732939781        -0.702146053
F             1.039698152         3.050928519         2.926670832
F            -1.633697547         2.566015143         2.283920295
F            -0.581367860         0.090992582         2.777240660
F             1.871384169         0.918409585         1.943778234
F             2.851052942         1.732272272        -0.053778054
F             1.067001714         3.020344152        -2.466007004
F             1.694627668         4.017605787         0.674014465
F             4.162046566         3.124070811         2.507473568
F             0.043054200         1.744009368         0.107364705
