12
-186.56215295
Al		-0.369815238		1.03031036		-1.910210536
Al		-0.611415981		1.043418691		1.514809001
Al		-2.956263303		0.472625078		-1.842334209
F		-3.505180455		0.321814336		-3.529566761
F		-1.545828958		-0.718905304		-1.850692138
F		-2.163466293		2.138956789		-1.905198761
F		-2.088170577		0.703278655		0.414420709
F		0.862924416		1.325897897		-0.380805775
F		-0.280765981		2.851500204		2.024321171
F		0.432109208		-0.447044871		2.087229358
F		-4.217935367		0.222769926		-0.646102713
F		0.875515219		1.271981503		-3.350417644
