12
-186.56215295
Al		-0.366920238		1.03180136		-1.864841836
Al		-0.529646614		1.058867153		1.398236836
Al		-2.988092719		0.465589189		-1.850573442
F		-3.518443761		0.318278908		-3.564647008
F		-1.461514557		-0.640521301		-1.846487845
F		-2.054349687		2.102579103		-1.898805583
F		-2.061214525		0.709498139		0.435073124
F		0.729670327		1.297919543		-0.337788411
F		-0.291291675		2.795312897		2.007584447
F		0.399460115		-0.400864058		2.068540645
F		-4.247339692		0.21703777		-0.613452065
F		0.811263927		1.259206637		-3.292161829
