12
-186.56215295
Al		-0.358235238		1.03627436		-1.728735736
Al		-0.284337981		1.105212691		1.048520201
Al		-3.083580903		0.444481478		-1.875292209
F		-3.558233655		0.307672336		-3.669888761
F		-1.208571358		-0.405369304		-1.833875338
F		-1.726999893		1.993445989		-1.879626761
F		-1.980345777		0.728157055		0.497029909
F		0.329908416		1.213984697		-0.208736575
F		-0.322867981		2.626751004		1.957374371
F		0.301513208		-0.262321671		2.012474158
F		-4.335552167		0.199841526		-0.515500713
F		0.618510019		1.220881903		-3.117394444
