12
-186.56215295
Al		-0.367885238		1.03130436		-1.879964736
Al		-0.556903114		1.053717653		1.437094236
Al		-2.977482919		0.467934489		-1.847826942
F		-3.514022661		0.319457408		-3.552953508
F		-1.489619357		-0.666649301		-1.847889245
F		-2.090721887		2.114705003		-1.900936583
F		-2.070199925		0.707424939		0.428189024
F		0.774088327		1.307245643		-0.352127511
F		-0.287783175		2.814041997		2.013163347
F		0.410343115		-0.416257658		2.074770245
F		-4.237538292		0.21894847		-0.624335565
F		0.832681027		1.263464937		-3.311580429
