12
-186.56215295
Al		-0.363060238		1.03378936		-1.804350236
Al		-0.420620614		1.079465153		1.242807236
Al		-3.030531919		0.456207989		-1.861559442
F		-3.536128161		0.313564908		-3.611421008
F		-1.349095357		-0.536009301		-1.840882245
F		-1.908860887		2.054075503		-1.890281583
F		-2.025272925		0.717790939		0.462609524
F		0.551998327		1.260615143		-0.280432011
F		-0.305325675		2.720396497		1.985268847
F		0.355928115		-0.339289658		2.043622245
F		-4.286545292		0.20939497		-0.569918065
F		0.725595527		1.242173437		-3.214487429
