12
-186.56215295
Al		-0.370780238		1.02981336		-1.925333436
Al		-0.638672614		1.038269153		1.553666436
Al		-2.945653519		0.474970389		-1.839587442
F		-3.500759361		0.322992908		-3.517873008
F		-1.573933757		-0.745033301		-1.852093445
F		-2.199838487		2.151082703		-1.907329583
F		-2.097156125		0.701205339		0.407536724
F		0.907342327		1.335223943		-0.395144811
F		-0.277257675		2.870229297		2.029900047
F		0.442992115		-0.462438458		2.093459045
F		-4.208134092		0.22468057		-0.656986065
F		0.896932327		1.276239837		-3.369836229
