12
-186.56215295
Al		-0.354375238		1.03826236		-1.668244136
Al		-0.175311981		1.125810691		0.893090601
Al		-3.126020103		0.435100278		-1.886278209
F		-3.575918055		0.302958336		-3.716662761
F		-1.096152158		-0.300857304		-1.828269738
F		-1.581511093		1.944942389		-1.871102761
F		-1.944404177		0.736449855		0.524566309
F		0.152236416		1.176680297		-0.151380175
F		-0.336901981		2.551834604		1.935058771
F		0.257981208		-0.200747271		1.987555758
F		-4.374757767		0.192198726		-0.471966713
F		0.532841619		1.203848703		-3.039720044
12
-186.56215295
Al		-0.356305238		1.03726836		-1.698489936
Al		-0.229824981		1.115511691		0.970805401
Al		-3.104800503		0.439790878		-1.880785209
F		-3.567075855		0.305315336		-3.693275761
F		-1.152361758		-0.353113304		-1.831072538
F		-1.654255493		1.969194189		-1.875364761
F		-1.962374977		0.732303455		0.510798109
F		0.241072416		1.195332497		-0.180058375
F		-0.329884981		2.589292804		1.946216571
F		0.279747208		-0.231534471		2.000014958
F		-4.355154967		0.196020126		-0.493733713
F		0.575675819		1.212365303		-3.078557244
12
-186.56215295
Al		-0.358235238		1.03627436		-1.728735736
Al		-0.284337981		1.105212691		1.048520201
Al		-3.083580903		0.444481478		-1.875292209
F		-3.558233655		0.307672336		-3.669888761
F		-1.208571358		-0.405369304		-1.833875338
F		-1.726999893		1.993445989		-1.879626761
F		-1.980345777		0.728157055		0.497029909
F		0.329908416		1.213984697		-0.208736575
F		-0.322867981		2.626751004		1.957374371
F		0.301513208		-0.262321671		2.012474158
F		-4.335552167		0.199841526		-0.515500713
F		0.618510019		1.220881903		-3.117394444
12
-186.56215295
Al		-0.360165238		1.03528036		-1.758981536
Al		-0.338850981		1.094913691		1.126235001
Al		-3.062361303		0.449172078		-1.869799209
F		-3.549391455		0.310029336		-3.646501761
F		-1.264780958		-0.457625304		-1.836678138
F		-1.799744293		2.017697789		-1.883888761
F		-1.998316577		0.724010655		0.483261709
F		0.418744416		1.232636897		-0.237414775
F		-0.315850981		2.664209204		1.968532171
F		0.323279208		-0.293108871		2.024933358
F		-4.315949367		0.203662926		-0.537267713
F		0.661344219		1.229398503		-3.156231644
12
-186.56215295
Al		-0.362095238		1.03428636		-1.789227336
Al		-0.393363981		1.084614691		1.203949801
Al		-3.041141703		0.453862678		-1.864306209
F		-3.540549255		0.312386336		-3.623114761
F		-1.320990558		-0.509881304		-1.839480938
F		-1.872488693		2.041949589		-1.888150761
F		-2.016287377		0.719864255		0.469493509
F		0.507580416		1.251289097		-0.266092975
F		-0.308833981		2.701667404		1.979689971
F		0.345045208		-0.323896071		2.037392558
F		-4.296346567		0.207484326		-0.559034713
F		0.704178419		1.237915103		-3.195068844
12
-186.56215295
Al		-0.364025238		1.03329236		-1.819473136
Al		-0.447876981		1.074315691		1.281664601
Al		-3.019922103		0.458553278		-1.858813209
F		-3.531707055		0.314743336		-3.599727761
F		-1.377200158		-0.562137304		-1.842283738
F		-1.945233093		2.066201389		-1.892412761
F		-2.034258177		0.715717855		0.455725309
F		0.596416416		1.269941297		-0.294771175
F		-0.301816981		2.739125604		1.990847771
F		0.366811208		-0.354683271		2.049851758
F		-4.276743767		0.211305726		-0.580801713
F		0.747012619		1.246431703		-3.233906044
12
-186.56215295
Al		-0.365955238		1.03229836		-1.849718936
Al		-0.502389981		1.064016691		1.359379401
Al		-2.998702503		0.463243878		-1.853320209
F		-3.522864855		0.317100336		-3.576340761
F		-1.433409758		-0.614393304		-1.845086538
F		-2.017977493		2.090453189		-1.896674761
F		-2.052228977		0.711571455		0.441957109
F		0.685252416		1.288593497		-0.323449375
F		-0.294799981		2.776583804		2.002005571
F		0.388577208		-0.385470471		2.062310958
F		-4.257140967		0.215127126		-0.602568713
F		0.789846819		1.254948303		-3.272743244
12
-186.56215295
Al		-0.367885238		1.03130436		-1.879964736
Al		-0.556902981		1.053717691		1.437094201
Al		-2.977482903		0.467934478		-1.847827209
F		-3.514022655		0.319457336		-3.552953761
F		-1.489619358		-0.666649304		-1.847889338
F		-2.090721893		2.114704989		-1.900936761
F		-2.070199777		0.707425055		0.428188909
F		0.774088416		1.307245697		-0.352127575
F		-0.287782981		2.814042004		2.013163371
F		0.410343208		-0.416257671		2.074770158
F		-4.237538167		0.218948526		-0.624335713
F		0.832681019		1.263464903		-3.311580444
12
-186.56215295
Al		-0.369815238		1.03031036		-1.910210536
Al		-0.611415981		1.043418691		1.514809001
Al		-2.956263303		0.472625078		-1.842334209
F		-3.505180455		0.321814336		-3.529566761
F		-1.545828958		-0.718905304		-1.850692138
F		-2.163466293		2.138956789		-1.905198761
F		-2.088170577		0.703278655		0.414420709
F		0.862924416		1.325897897		-0.380805775
F		-0.280765981		2.851500204		2.024321171
F		0.432109208		-0.447044871		2.087229358
F		-4.217935367		0.222769926		-0.646102713
F		0.875515219		1.271981503		-3.350417644
12
-186.56215295
Al		-0.371745238		1.02931636		-1.940456336
Al		-0.665928981		1.033119691		1.592523801
Al		-2.935043703		0.477315678		-1.836841209
F		-3.496338255		0.324171336		-3.506179761
F		-1.602038558		-0.771161304		-1.853494938
F		-2.236210693		2.163208589		-1.909460761
F		-2.106141377		0.699132255		0.400652509
F		0.951760416		1.344550097		-0.409483975
F		-0.273748981		2.888958404		2.035478971
F		0.453875208		-0.477832071		2.099688558
F		-4.198332567		0.226591326		-0.667869713
F		0.918349419		1.280498103		-3.389254844
