12
Properties=species:S:1:pos:R:3:forces:R:3 energy=-185.46157334 pbc="F F F"
Al    0.35307029300000004    -0.715954458    1.6222948389999998    0.86987    -5.516796    -5.484699
Al    2.814736665    -1.920566472    -0.663979897    2.303663    -1.074351    -1.313951
Al    -0.5808919810000001    -1.742480158    -0.8274893430000001    -1.805343    -1.127118    -1.912556
F    3.222987007    -0.802534493    -0.9798624800000001    -0.976286    -1.103844    0.531596
F    -2.001385554    -0.321336188    -2.043489397    0.811513    -1.080883    0.792045
F    2.661823795    -3.168878094    -0.503132043    -0.422198    1.947509    0.003462
F    -1.2700353659999999    -3.904224702    -1.07050302    0.354552    1.95748    0.116621
F    1.784889697    -1.3505479930000002    1.338317502    -2.883111    1.516782    2.018168
F    0.5432321640000001    -1.5078934819999998    -1.541054065    0.047535    0.163608    -0.340718
F    0.095221952    -1.202147463    3.545993589    -0.494769    -0.695162    3.457519
F    0.41110067100000003    1.237207899    1.171315536    0.046063    3.431378    -0.618679
F    -0.9422336680000001    -1.4371398830000002    0.796973614    2.148513    1.581401    2.751183
