12
-187.38518821
Al		1.282517057		0.049079839		2.443897034
Al		1.274828574		1.191523586		-0.082049341
Al		-0.31921219		0.835920687		-2.322188287
F		-1.66792533		-0.372966022		-2.220132976
F		2.059326986		-0.352211005		0.754775952
F		0.049664714		1.820566728		-3.797792402
F		-0.359004847		1.936155129		-0.77023103
F		2.589792621		2.418711826		-0.321368302
F		1.260372331		0.040269982		-1.62258062
F		0.442816353		1.542263576		1.615660474
F		2.54399646		0.595240493		3.624313801
F		0.023187633		-1.203716737		2.811918287
