12
-187.38518821
Al		1.282485692		0.049116418		2.443913615
Al		1.274295276		1.192145564		-0.081767434
Al		-0.319243555		0.835957266		-2.322171709
F		-1.667207928		-0.373802716		-2.220512203
F		2.058277748		-0.352236928		0.754460799
F		0.049687004		1.82054073		-3.797804186
F		-0.35899258		1.937126433		-0.770738285
F		2.590315185		2.418102367		-0.321644536
F		1.259714215		0.040051924		-1.621731959
F		0.443219739		1.543042745		1.61631703
F		2.54401875		0.595214495		3.624302017
F		0.023905035		-1.204553431		2.81153906
