12
-187.38518821
Al		1.282611152		0.048970102		2.443847291
Al		1.276428468		1.189657652		-0.082895062
Al		-0.319118095		0.83581095		-2.322238021
F		-1.670077536		-0.37045594		-2.218995295
F		2.0624747		-0.352133236		0.755721411
F		0.049597844		1.820644722		-3.79775705
F		-0.359041648		1.933241217		-0.768709265
F		2.588224929		2.420540203		-0.3205396
F		1.262346679		0.040924156		-1.625126603
F		0.441606195		1.539926069		1.613690806
F		2.54392959		0.595318487		3.624349153
F		0.021035427		-1.201206655		2.813055968
