12
-187.38518821
Al		1.282381142		0.049238348		2.443968885
Al		1.272517616		1.194218824		-0.080827744
Al		-0.319348105		0.836079196		-2.322116449
F		-1.664816588		-0.376591696		-2.221776293
F		2.054780288		-0.352323338		0.753410289
F		0.049761304		1.82045407		-3.797843466
F		-0.35895169		1.940364113		-0.772429135
F		2.592057065		2.416070837		-0.322565316
F		1.257520495		0.039325064		-1.618903089
F		0.444564359		1.545639975		1.61850555
F		2.54409305		0.595127835		3.624262737
F		0.026296375		-1.207342411		2.81027497
