12
-187.38518821
Al		1.282339322		0.04928712		2.443990993
Al		1.271806552		1.195048128		-0.080451868
Al		-0.319389925		0.836127968		-2.322094345
F		-1.663860052		-0.377707288		-2.222281929
F		2.053381304		-0.352357902		0.752990085
F		0.049791024		1.820419406		-3.797859178
F		-0.358935334		1.941659185		-0.773105475
F		2.592753817		2.415258225		-0.322933628
F		1.256643007		0.03903432		-1.617771541
F		0.445102207		1.546678867		1.619380958
F		2.54412277		0.595093171		3.624247025
F		0.027252911		-1.208458003		2.809769334
