12
-187.38518821
Al		1.282328867		0.049299313		2.44399652
Al		1.271628786		1.195255454		-0.080357899
Al		-0.31940038		0.836140161		-2.322088819
F		-1.663620918		-0.377986186		-2.222408338
F		2.053031558		-0.352366543		0.752885034
F		0.049798454		1.82041074		-3.797863106
F		-0.358931245		1.941982953		-0.77327456
F		2.592928005		2.415055072		-0.323025706
F		1.256423635		0.038961634		-1.617488654
F		0.445236669		1.54693859		1.61959981
F		2.5441302		0.595084505		3.624243097
F		0.027492045		-1.208736901		2.809642925
