12
-187.38518821
Al		1.282172042		0.049482208		2.444079425
Al		1.268962296		1.198365344		-0.078948364
Al		-0.319557205		0.836323056		-2.322005929
F		-1.660033908		-0.382169656		-2.224304473
F		2.047785368		-0.352496158		0.751309269
F		0.049909904		1.82028075		-3.797922026
F		-0.35886991		1.946839473		-0.775810835
F		2.595540825		2.412007777		-0.324406876
F		1.253133055		0.037871344		-1.613245349
F		0.447253599		1.550834435		1.62288259
F		2.54424165		0.594954515		3.624184177
F		0.031079055		-1.212920371		2.80774679
