12
-187.38518821
Al		1.282140677		0.049518787		2.444096006
Al		1.268428998		1.198987322		-0.078666457
Al		-0.31958857		0.836359635		-2.321989351
F		-1.659316506		-0.38300635		-2.2246837
F		2.04673613		-0.352522081		0.750994116
F		0.049932194		1.820254752		-3.79793381
F		-0.358857643		1.947810777		-0.77631809
F		2.596063389		2.411398318		-0.32468311
F		1.252474939		0.037653286		-1.612396688
F		0.447656985		1.551613604		1.623539146
F		2.54426394		0.594928517		3.624172393
F		0.031796457		-1.213757065		2.807367563
