12
-187.38518821
Al		1.282130222		0.04953098		2.444101533
Al		1.268251232		1.199194648		-0.078572488
Al		-0.319599025		0.836371828		-2.321983825
F		-1.659077372		-0.383285248		-2.224810109
F		2.046386384		-0.352530722		0.750889065
F		0.049939624		1.820246086		-3.797937738
F		-0.358853554		1.948134545		-0.776487175
F		2.596237577		2.411195165		-0.324775188
F		1.252255567		0.0375806		-1.612113801
F		0.447791447		1.551873327		1.623757998
F		2.54427137		0.594919851		3.624168465
F		0.032035591		-1.214035963		2.807241154
