12
-187.38518821
Al		1.282119767		0.049543173		2.44410706
Al		1.268073466		1.199401974		-0.078478519
Al		-0.31960948		0.836384021		-2.321978299
F		-1.658838238		-0.383564146		-2.224936518
F		2.046036638		-0.352539363		0.750784014
F		0.049947054		1.82023742		-3.797941666
F		-0.358849465		1.948458313		-0.77665626
F		2.596411765		2.410992012		-0.324867266
F		1.252036195		0.037507914		-1.611830914
F		0.447925909		1.55213305		1.62397685
F		2.5442788		0.594911185		3.624164537
F		0.032274725		-1.214314861		2.807114745
