12
-187.38518821
Al		1.282579787		0.049006681		2.443863872
Al		1.27589517		1.19027963		-0.082613155
Al		-0.31914946		0.835847529		-2.322221443
F		-1.669360134		-0.371292634		-2.219374522
F		2.061425462		-0.352159159		0.755406258
F		0.049620134		1.820618724		-3.797768834
F		-0.359029381		1.934212521		-0.76921652
F		2.588747493		2.419930744		-0.320815834
F		1.261688563		0.040706098		-1.624277942
F		0.442009581		1.540705238		1.614347362
F		2.54395188		0.595292489		3.624337369
F		0.021752829		-1.202043349		2.812676741
