12
-187.38518821
Al		1.282098857		0.049567559		2.444118114
Al		1.267717934		1.199816626		-0.078290581
Al		-0.31963039		0.836408407		-2.321967247
F		-1.65835997		-0.384121942		-2.225189336
F		2.045337146		-0.352556645		0.750573912
F		0.049961914		1.820220088		-3.797949522
F		-0.358841287		1.949105849		-0.77699443
F		2.596760141		2.410585706		-0.325051422
F		1.251597451		0.037362542		-1.61126514
F		0.448194833		1.552652496		1.624414554
F		2.54429366		0.594893853		3.624156681
F		0.032752993		-1.214872657		2.806861927
