12
-187.38518821
Al		1.282057037		0.049616331		2.444140222
Al		1.26700687		1.20064593		-0.077914705
Al		-0.31967221		0.836457179		-2.321945143
F		-1.657403434		-0.385237534		-2.225694972
F		2.043938162		-0.352591209		0.750153708
F		0.049991634		1.820185424		-3.797965234
F		-0.358824931		1.950400921		-0.77767077
F		2.597456893		2.409773094		-0.325419734
F		1.250719963		0.037071798		-1.610133592
F		0.448732681		1.553691388		1.625289962
F		2.54432338		0.594859189		3.624140969
F		0.033709529		-1.215988249		2.806356291
