12
-187.38518821
Al		1.282025672		0.04965291		2.444156803
Al		1.266473572		1.201267908		-0.077632798
Al		-0.319703575		0.836493758		-2.321928565
F		-1.656686032		-0.386074228		-2.226074199
F		2.042888924		-0.352617132		0.749838555
F		0.050013924		1.820159426		-3.797977018
F		-0.358812664		1.951372225		-0.778178025
F		2.597979457		2.409163635		-0.325695968
F		1.250061847		0.03685374		-1.609284931
F		0.449136067		1.554470557		1.625946518
F		2.54434567		0.594833191		3.624129185
F		0.034426931		-1.216824943		2.805977064
