12
-187.38518821
Al		1.281994307		0.049689489		2.444173384
Al		1.265940274		1.201889886		-0.077350891
Al		-0.31973494		0.836530337		-2.321911987
F		-1.65596863		-0.386910922		-2.226453426
F		2.041839686		-0.352643055		0.749523402
F		0.050036214		1.820133428		-3.797988802
F		-0.358800397		1.952343529		-0.77868528
F		2.598502021		2.408554176		-0.325972202
F		1.249403731		0.036635682		-1.60843627
F		0.449539453		1.555249726		1.626603074
F		2.54436796		0.594807193		3.624117401
F		0.035144333		-1.217661637		2.805597837
