12
-187.38518821
Al		1.281983852		0.049701682		2.444178911
Al		1.265762508		1.202097212		-0.077256922
Al		-0.319745395		0.83654253		-2.321906461
F		-1.655729496		-0.38718982		-2.226579835
F		2.04148994		-0.352651696		0.749418351
F		0.050043644		1.820124762		-3.79799273
F		-0.358796308		1.952667297		-0.778854365
F		2.598676209		2.408351023		-0.32606428
F		1.249184359		0.036562996		-1.608153383
F		0.449673915		1.555509449		1.626821926
F		2.54437539		0.594798527		3.624113473
F		0.035383467		-1.217940535		2.805471428
