12
-187.38518821
Al		1.281952487		0.049738261		2.444195492
Al		1.26522921		1.20271919		-0.076975015
Al		-0.31977676		0.836579109		-2.321889883
F		-1.655012094		-0.388026514		-2.226959062
F		2.040440702		-0.352677619		0.749103198
F		0.050065934		1.820098764		-3.798004514
F		-0.358784041		1.953638601		-0.77936162
F		2.599198773		2.407741564		-0.326340514
F		1.248526243		0.036344938		-1.607304722
F		0.450077301		1.556288618		1.627478482
F		2.54439768		0.594772529		3.624101689
F		0.036100869		-1.218777229		2.805092201
