12
-187.38518821
Al		1.281942032		0.049750454		2.444201019
Al		1.265051444		1.202926516		-0.076881046
Al		-0.319787215		0.836591302		-2.321884357
F		-1.65477296		-0.388305412		-2.227085471
F		2.040090956		-0.35268626		0.748998147
F		0.050073364		1.820090098		-3.798008442
F		-0.358779952		1.953962369		-0.779530705
F		2.599372961		2.407538411		-0.326432592
F		1.248306871		0.036272252		-1.607021835
F		0.450211763		1.556548341		1.627697334
F		2.54440511		0.594763863		3.624097761
F		0.036340003		-1.219056127		2.804965792
