12
-187.38518821
Al		1.281889757		0.049811419		2.444228654
Al		1.264162614		1.203963146		-0.076411201
Al		-0.31983949		0.836652267		-2.321856727
F		-1.65357729		-0.389699902		-2.227717516
F		2.038342226		-0.352729465		0.748472892
F		0.050110514		1.820046768		-3.798028082
F		-0.358759507		1.955581209		-0.78037613
F		2.600243901		2.406522646		-0.326892982
F		1.247210011		0.035908822		-1.6056074
F		0.450884073		1.557846956		1.628791594
F		2.54444226		0.594720533		3.624078121
F		0.037535673		-1.220450617		2.804333747
