12
-187.38518821
Al		1.281868847		0.049835805		2.444239708
Al		1.263807082		1.204377798		-0.076223263
Al		-0.3198604		0.836676653		-2.321845675
F		-1.653099022		-0.390257698		-2.227970334
F		2.037642734		-0.352746747		0.74826279
F		0.050125374		1.820029436		-3.798035938
F		-0.358751329		1.956228745		-0.7807143
F		2.600592277		2.40611634		-0.327077138
F		1.246771267		0.03576345		-1.605041626
F		0.451152997		1.558366402		1.629229298
F		2.54445712		0.594703201		3.624070265
F		0.038013941		-1.221008413		2.804080929
