12
-187.38518821
Al		1.281858392		0.049847998		2.444245235
Al		1.263629316		1.204585124		-0.076129294
Al		-0.319870855		0.836688846		-2.321840149
F		-1.652859888		-0.390536596		-2.228096743
F		2.037292988		-0.352755388		0.748157739
F		0.050132804		1.82002077		-3.798039866
F		-0.35874724		1.956552513		-0.780883385
F		2.600766465		2.405913187		-0.327169216
F		1.246551895		0.035690764		-1.604758739
F		0.451287459		1.558626125		1.62944815
F		2.54446455		0.594694535		3.624066337
F		0.038253075		-1.221287311		2.80395452
