12
-187.38518821
Al		1.281847937		0.049860191		2.444250762
Al		1.26345155		1.20479245		-0.076035325
Al		-0.31988131		0.836701039		-2.321834623
F		-1.652620754		-0.390815494		-2.228223152
F		2.036943242		-0.352764029		0.748052688
F		0.050140234		1.820012104		-3.798043794
F		-0.358743151		1.956876281		-0.78105247
F		2.600940653		2.405710034		-0.327261294
F		1.246332523		0.035618078		-1.604475852
F		0.451421921		1.558885848		1.629667002
F		2.54447198		0.594685869		3.624062409
F		0.038492209		-1.221566209		2.803828111
