12
-187.38518821
Al		1.281837482		0.049872384		2.444256289
Al		1.263273784		1.204999776		-0.075941356
Al		-0.319891765		0.836713232		-2.321829097
F		-1.65238162		-0.391094392		-2.228349561
F		2.036593496		-0.35277267		0.747947637
F		0.050147664		1.820003438		-3.798047722
F		-0.358739062		1.957200049		-0.781221555
F		2.601114841		2.405506881		-0.327353372
F		1.246113151		0.035545392		-1.604192965
F		0.451556383		1.559145571		1.629885854
F		2.54447941		0.594677203		3.624058481
F		0.038731343		-1.221845107		2.803701702
