12
-187.38518821
Al		1.281816572		0.04989677		2.444267343
Al		1.262918252		1.205414428		-0.075753418
Al		-0.319912675		0.836737618		-2.321818045
F		-1.651903352		-0.391652188		-2.228602379
F		2.035894004		-0.352789952		0.747737535
F		0.050162524		1.819986106		-3.798055578
F		-0.358730884		1.957847585		-0.781559725
F		2.601463217		2.405100575		-0.327537528
F		1.245674407		0.03540002		-1.603627191
F		0.451825307		1.559665017		1.630323558
F		2.54449427		0.594659871		3.624050625
F		0.039209611		-1.222402903		2.803448884
