12
-187.38518821
Al		1.282548422		0.04904326		2.443880453
Al		1.275361872		1.190901608		-0.082331248
Al		-0.319180825		0.835884108		-2.322204865
F		-1.668642732		-0.372129328		-2.219753749
F		2.060376224		-0.352185082		0.755091105
F		0.049642424		1.820592726		-3.797780618
F		-0.359017114		1.935183825		-0.769723775
F		2.589270057		2.419321285		-0.321092068
F		1.261030447		0.04048804		-1.623429281
F		0.442412967		1.541484407		1.615003918
F		2.54397417		0.595266491		3.624325585
F		0.022470231		-1.202880043		2.812297514
