12
-187.38518821
Al		1.281764297		0.049957735		2.444294978
Al		1.262029422		1.206451058		-0.075283573
Al		-0.31996495		0.836798583		-2.321790415
F		-1.650707682		-0.393046678		-2.229234424
F		2.034145274		-0.352833157		0.74721228
F		0.050199674		1.819942776		-3.798075218
F		-0.358710439		1.959466425		-0.78240515
F		2.602334157		2.40408481		-0.327997918
F		1.244577547		0.03503659		-1.602212756
F		0.452497617		1.560963632		1.631417818
F		2.54453142		0.594616541		3.624030985
F		0.040405281		-1.223797393		2.802816839
