12
-187.38518821
Al		1.281722477		0.050006507		2.444317086
Al		1.261318358		1.207280362		-0.074907697
Al		-0.32000677		0.836847355		-2.321768311
F		-1.649751146		-0.39416227		-2.22974006
F		2.03274629		-0.352867721		0.746792076
F		0.050229394		1.819908112		-3.79809093
F		-0.358694083		1.960761497		-0.78308149
F		2.603030909		2.403272198		-0.32836623
F		1.243700059		0.034745846		-1.601081208
F		0.453035465		1.562002524		1.632293226
F		2.54456114		0.594581877		3.624015273
F		0.041361817		-1.224912985		2.802311203
