12
-187.38518821
Al		1.282537967		0.049055453		2.44388598
Al		1.275184106		1.191108934		-0.082237279
Al		-0.31919128		0.835896301		-2.322199339
F		-1.668403598		-0.372408226		-2.219880158
F		2.060026478		-0.352193723		0.754986054
F		0.049649854		1.82058406		-3.797784546
F		-0.359013025		1.935507593		-0.76989286
F		2.589444245		2.419118132		-0.321184146
F		1.260811075		0.040415354		-1.623146394
F		0.442547429		1.54174413		1.61522277
F		2.5439816		0.595257825		3.624321657
F		0.022709365		-1.203158941		2.812171105
