12
-187.38518821
Al		1.281670202		0.050067472		2.444344721
Al		1.260429528		1.208316992		-0.074437852
Al		-0.320059045		0.83690832		-2.321740681
F		-1.648555476		-0.39555676		-2.230372105
F		2.03099756		-0.352910926		0.746266821
F		0.050266544		1.819864782		-3.79811057
F		-0.358673638		1.962380337		-0.783926915
F		2.603901849		2.402256433		-0.32882662
F		1.242603199		0.034382416		-1.599666773
F		0.453707775		1.563301139		1.633387486
F		2.54459829		0.594538547		3.623995633
F		0.042557487		-1.226307475		2.801679158
