12
-187.38518821
Al		1.281659747		0.050079665		2.444350248
Al		1.260251762		1.208524318		-0.074343883
Al		-0.3200695		0.836920513		-2.321735155
F		-1.648316342		-0.395835658		-2.230498514
F		2.030647814		-0.352919567		0.74616177
F		0.050273974		1.819856116		-3.798114498
F		-0.358669549		1.962704105		-0.784096
F		2.604076037		2.40205328		-0.328918698
F		1.242383827		0.03430973		-1.599383886
F		0.453842237		1.563560862		1.633606338
F		2.54460572		0.594529881		3.623991705
F		0.042796621		-1.226586373		2.801552749
