12
-187.38518821
Al		1.281628382		0.050116244		2.444366829
Al		1.259718464		1.209146296		-0.074061976
Al		-0.320100865		0.836957092		-2.321718577
F		-1.64759894		-0.396672352		-2.230877741
F		2.029598576		-0.35294549		0.745846617
F		0.050296264		1.819830118		-3.798126282
F		-0.358657282		1.963675409		-0.784603255
F		2.604598601		2.401443821		-0.329194932
F		1.241725711		0.034091672		-1.598535225
F		0.454245623		1.564340031		1.634262894
F		2.54462801		0.594503883		3.623979921
F		0.043514023		-1.227423067		2.801173522
