12
-187.38518821
Al		1.281597017		0.050152823		2.44438341
Al		1.259185166		1.209768274		-0.073780069
Al		-0.32013223		0.836993671		-2.321701999
F		-1.646881538		-0.397509046		-2.231256968
F		2.028549338		-0.352971413		0.745531464
F		0.050318554		1.81980412		-3.798138066
F		-0.358645015		1.964646713		-0.78511051
F		2.605121165		2.400834362		-0.329471166
F		1.241067595		0.033873614		-1.597686564
F		0.454649009		1.5651192		1.63491945
F		2.5446503		0.594477885		3.623968137
F		0.044231425		-1.228259761		2.800794295
