12
-187.38518821
Al		1.282642517		0.048933523		2.44383071
Al		1.276961766		1.189035674		-0.083176969
Al		-0.31908673		0.835774371		-2.322254599
F		-1.670794938		-0.369619246		-2.218616068
F		2.063523938		-0.352107313		0.756036564
F		0.049575554		1.82067072		-3.797745266
F		-0.359053915		1.932269913		-0.76820201
F		2.587702365		2.421149662		-0.320263366
F		1.263004795		0.041142214		-1.625975264
F		0.441202809		1.5391469		1.61303425
F		2.5439073		0.595344485		3.624360937
F		0.020318025		-1.200369961		2.813435195
