12
-187.38518821
Al		1.282747067		0.048811593		2.44377544
Al		1.278739426		1.186962414		-0.084116659
Al		-0.31898218		0.835652441		-2.322309859
F		-1.673186278		-0.366830266		-2.217351978
F		2.067021398		-0.352020903		0.757087074
F		0.049501254		1.82075738		-3.797705986
F		-0.359094805		1.929032233		-0.76651116
F		2.585960485		2.423181192		-0.319342586
F		1.265198515		0.041869074		-1.628804134
F		0.439858189		1.53654967		1.61084573
F		2.543833		0.595431145		3.624400217
F		0.017926685		-1.197580981		2.814699285
