12
-187.38518821
Al		1.282778432		0.048775014		2.443758859
Al		1.279272724		1.186340436		-0.084398566
Al		-0.318950815		0.835615862		-2.322326437
F		-1.67390368		-0.365993572		-2.216972751
F		2.068070636		-0.35199498		0.757402227
F		0.049478964		1.820783378		-3.797694202
F		-0.359107072		1.928060929		-0.766003905
F		2.585437921		2.423790651		-0.319066352
F		1.265856631		0.042087132		-1.629652795
F		0.439454803		1.535770501		1.610189174
F		2.54381071		0.595457143		3.624412001
F		0.017209283		-1.196744287		2.815078512
