12
-187.38518821
Al		1.282799342		0.048750628		2.443747805
Al		1.279628256		1.185925784		-0.084586504
Al		-0.318929905		0.835591476		-2.322337489
F		-1.674381948		-0.365435776		-2.216719933
F		2.068770128		-0.351977698		0.757612329
F		0.049464104		1.82080071		-3.797686346
F		-0.35911525		1.927413393		-0.765665735
F		2.585089545		2.424196957		-0.318882196
F		1.266295375		0.042232504		-1.630218569
F		0.439185879		1.535251055		1.60975147
F		2.54379585		0.595474475		3.624419857
F		0.016731015		-1.196186491		2.81533133
