12
-187.38518821
Al		1.282841162		0.048701856		2.443725697
Al		1.28033932		1.18509648		-0.08496238
Al		-0.318888085		0.835542704		-2.322359593
F		-1.675338484		-0.364320184		-2.216214297
F		2.070169112		-0.351943134		0.758032533
F		0.049434384		1.820835374		-3.797670634
F		-0.359131606		1.926118321		-0.764989395
F		2.584392793		2.425009569		-0.318513884
F		1.267172863		0.042523248		-1.631350117
F		0.438648031		1.534212163		1.608876062
F		2.54376613		0.595509139		3.624435569
F		0.015774479		-1.195070899		2.815836966
