12
-187.38518821
Al		1.282893437		0.048640891		2.443698062
Al		1.28122815		1.18405985		-0.085432225
Al		-0.31883581		0.835481739		-2.322387223
F		-1.676534154		-0.362925694		-2.215582252
F		2.071917842		-0.351899929		0.758557788
F		0.049397234		1.820878704		-3.797650994
F		-0.359152051		1.924499481		-0.76414397
F		2.583521853		2.426025334		-0.318053494
F		1.268269723		0.042886678		-1.632764552
F		0.437975721		1.532913548		1.607781802
F		2.54372898		0.595552469		3.624455209
F		0.014578809		-1.193676409		2.816469011
