12
-187.38518821
Al		1.282914347		0.048616505		2.443687008
Al		1.281583682		1.183645198		-0.085620163
Al		-0.3188149		0.835457353		-2.322398275
F		-1.677012422		-0.362367898		-2.215329434
F		2.072617334		-0.351882647		0.75876789
F		0.049382374		1.820896036		-3.797643138
F		-0.359160229		1.923851945		-0.7638058
F		2.583173477		2.42643164		-0.317869338
F		1.268708467		0.04303205		-1.633330326
F		0.437706797		1.532394102		1.607344098
F		2.54371412		0.595569801		3.624463065
F		0.014100541		-1.193118613		2.816721829
