12
-187.38518821
Al		1.282924802		0.048604312		2.443681481
Al		1.281761448		1.183437872		-0.085714132
Al		-0.318804445		0.83544516		-2.322403801
F		-1.677251556		-0.362089		-2.215203025
F		2.07296708		-0.351874006		0.758872941
F		0.049374944		1.820904702		-3.79763921
F		-0.359164318		1.923528177		-0.763636715
F		2.582999289		2.426634793		-0.31777726
F		1.268927839		0.043104736		-1.633613213
F		0.437572335		1.532134379		1.607125246
F		2.54370669		0.595578467		3.624466993
F		0.013861407		-1.192839715		2.816848238
