12
-187.38518821
Al		1.282977077		0.048543347		2.443653846
Al		1.282650278		1.182401242		-0.086183977
Al		-0.31875217		0.835384195		-2.322431431
F		-1.678447226		-0.36069451		-2.21457098
F		2.07471581		-0.351830801		0.759398196
F		0.049337794		1.820948032		-3.79761957
F		-0.359184763		1.921909337		-0.76279129
F		2.582128349		2.427650558		-0.31731687
F		1.270024699		0.043468166		-1.635027648
F		0.436900025		1.530835764		1.606030986
F		2.54366954		0.595621797		3.624486633
F		0.012665737		-1.191445225		2.817480283
