12
-187.38518821
Al		1.283008442		0.048506768		2.443637265
Al		1.283183576		1.181779264		-0.086465884
Al		-0.318720805		0.835347616		-2.322448009
F		-1.679164628		-0.359857816		-2.214191753
F		2.075765048		-0.351804878		0.759713349
F		0.049315504		1.82097403		-3.797607786
F		-0.35919703		1.920938033		-0.762284035
F		2.581605785		2.428260017		-0.317040636
F		1.270682815		0.043686224		-1.635876309
F		0.436496639		1.530056595		1.60537443
F		2.54364725		0.595647795		3.624498417
F		0.011948335		-1.190608531		2.81785951
