12
-187.38518821
Al		1.283050262		0.048457996		2.443615157
Al		1.28389464		1.18094996		-0.08684176
Al		-0.318678985		0.835298844		-2.322470113
F		-1.680121164		-0.358742224		-2.213686117
F		2.077164032		-0.351770314		0.760133553
F		0.049285784		1.821008694		-3.797592074
F		-0.359213386		1.919642961		-0.761607695
F		2.580909033		2.429072629		-0.316672324
F		1.271560303		0.043976968		-1.637007857
F		0.435958791		1.529017703		1.604499022
F		2.54361753		0.595682459		3.624514129
F		0.010991799		-1.189492939		2.818365146
