12
-187.38518821
Al		1.283071172		0.04843361		2.443604103
Al		1.284250172		1.180535308		-0.087029698
Al		-0.318658075		0.835274458		-2.322481165
F		-1.680599432		-0.358184428		-2.213433299
F		2.077863524		-0.351753032		0.760343655
F		0.049270924		1.821026026		-3.797584218
F		-0.359221564		1.918995425		-0.761269525
F		2.580560657		2.429478935		-0.316488168
F		1.271999047		0.04412234		-1.637573631
F		0.435689867		1.528498257		1.604061318
F		2.54360267		0.595699791		3.624521985
F		0.010513531		-1.188935143		2.818617964
