12
-187.38518821
Al		1.283123447		0.048372645		2.443576468
Al		1.285139002		1.179498678		-0.087499543
Al		-0.3186058		0.835213493		-2.322508795
F		-1.681795102		-0.356789938		-2.212801254
F		2.079612254		-0.351709827		0.76086891
F		0.049233774		1.821069356		-3.797564578
F		-0.359242009		1.917376585		-0.7604241
F		2.579689717		2.4304947		-0.316027778
F		1.273095907		0.04448577		-1.638988066
F		0.435017557		1.527199642		1.602967058
F		2.54356552		0.595743121		3.624541625
F		0.009317861		-1.187540653		2.819250009
