12
-187.38518821
Al		1.283154812		0.048336066		2.443559887
Al		1.2856723		1.1788767		-0.08778145
Al		-0.318574435		0.835176914		-2.322525373
F		-1.682512504		-0.355953244		-2.212422027
F		2.080661492		-0.351683904		0.761184063
F		0.049211484		1.821095354		-3.797552794
F		-0.359254276		1.916405281		-0.759916845
F		2.579167153		2.431104159		-0.315751544
F		1.273754023		0.044703828		-1.639836727
F		0.434614171		1.526420473		1.602310502
F		2.54354323		0.595769119		3.624553409
F		0.008600459		-1.186703959		2.819629236
