12
-187.38518821
Al		1.283175722		0.04831168		2.443548833
Al		1.286027832		1.178462048		-0.087969388
Al		-0.318553525		0.835152528		-2.322536425
F		-1.682990772		-0.355395448		-2.212169209
F		2.081360984		-0.351666622		0.761394165
F		0.049196624		1.821112686		-3.797544938
F		-0.359262454		1.915757745		-0.759578675
F		2.578818777		2.431510465		-0.315567388
F		1.274192767		0.0448492		-1.640402501
F		0.434345247		1.525901027		1.601872798
F		2.54352837		0.595786451		3.624561265
F		0.008122191		-1.186146163		2.819882054
