12
-187.38518821
Al		1.283186177		0.048299487		2.443543306
Al		1.286205598		1.178254722		-0.088063357
Al		-0.31854307		0.835140335		-2.322541951
F		-1.683229906		-0.35511655		-2.2120428
F		2.08171073		-0.351657981		0.761499216
F		0.049189194		1.821121352		-3.79754101
F		-0.359266543		1.915433977		-0.75940959
F		2.578644589		2.431713618		-0.31547531
F		1.274412139		0.044921886		-1.640685388
F		0.434210785		1.525641304		1.601653946
F		2.54352094		0.595795117		3.624565193
F		0.007883057		-1.185867265		2.820008463
