12
-187.38518821
Al		1.283217542		0.048262908		2.443526725
Al		1.286738896		1.177632744		-0.088345264
Al		-0.318511705		0.835103756		-2.322558529
F		-1.683947308		-0.354279856		-2.211663573
F		2.082759968		-0.351632058		0.761814369
F		0.049166904		1.82114735		-3.797529226
F		-0.35927881		1.914462673		-0.758902335
F		2.578122025		2.432323077		-0.315199076
F		1.275070255		0.045139944		-1.641534049
F		0.433807399		1.524862135		1.60099739
F		2.54349865		0.595821115		3.624576977
F		0.007165655		-1.185030571		2.82038769
