12
-187.38518821
Al		1.283227997		0.048250715		2.443521198
Al		1.286916662		1.177425418		-0.088439233
Al		-0.31850125		0.835091563		-2.322564055
F		-1.684186442		-0.354000958		-2.211537164
F		2.083109714		-0.351623417		0.76191942
F		0.049159474		1.821156016		-3.797525298
F		-0.359282899		1.914138905		-0.75873325
F		2.577947837		2.43252623		-0.315106998
F		1.275289627		0.04521263		-1.641816936
F		0.433672937		1.524602412		1.600778538
F		2.54349122		0.595829781		3.624580905
F		0.006926521		-1.184751673		2.820514099
