12
-187.38518821
Al		1.283311637		0.048153171		2.443476982
Al		1.28833879		1.17576681		-0.089190985
Al		-0.31841761		0.834994019		-2.322608263
F		-1.686099514		-0.351769774		-2.210525892
F		2.085907682		-0.351554289		0.762759828
F		0.049100034		1.821225344		-3.797493874
F		-0.359315611		1.911548761		-0.75738057
F		2.576554333		2.434151454		-0.314370374
F		1.277044603		0.045794118		-1.644080032
F		0.432597241		1.522524628		1.599027722
F		2.54343178		0.595899109		3.624612329
F		0.005013449		-1.182520489		2.821525371
