12
-187.38518821
Al		1.283363912		0.048092206		2.443449347
Al		1.28922762		1.17473018		-0.08966083
Al		-0.318365335		0.834933054		-2.322635893
F		-1.687295184		-0.350375284		-2.209893847
F		2.087656412		-0.351511084		0.763285083
F		0.049062884		1.821268674		-3.797474234
F		-0.359336056		1.909929921		-0.756535145
F		2.575683393		2.435167219		-0.313909984
F		1.278141463		0.046157548		-1.645494467
F		0.431924931		1.521226013		1.597933462
F		2.54339463		0.595942439		3.624631969
F		0.003817779		-1.181125999		2.822157416
