12
-187.38518821
Al		1.283374367		0.048080013		2.44344382
Al		1.289405386		1.174522854		-0.089754799
Al		-0.31835488		0.834920861		-2.322641419
F		-1.687534318		-0.350096386		-2.209767438
F		2.088006158		-0.351502443		0.763390134
F		0.049055454		1.82127734		-3.797470306
F		-0.359340145		1.909606153		-0.75636606
F		2.575509205		2.435370372		-0.313817906
F		1.278360835		0.046230234		-1.645777354
F		0.431790469		1.52096629		1.59771461
F		2.5433872		0.595951105		3.624635897
F		0.003578645		-1.180847101		2.822283825
