12
-187.38518821
Al		1.283437097		0.048006855		2.443410658
Al		1.290471982		1.173278898		-0.090318613
Al		-0.31829215		0.834847703		-2.322674575
F		-1.688969122		-0.348422998		-2.209008984
F		2.090104634		-0.351450597		0.76402044
F		0.049010874		1.821329336		-3.797446738
F		-0.359364679		1.907663545		-0.75535155
F		2.574464077		2.43658929		-0.313265438
F		1.279677067		0.04666635		-1.647474676
F		0.430983697		1.519407952		1.596401498
F		2.54334262		0.596003101		3.624659465
F		0.002143841		-1.179173713		2.823042279
