12
-187.38518821
Al		1.282715702		0.048848172		2.443792021
Al		1.278206128		1.187584392		-0.083834752
Al		-0.319013545		0.83568902		-2.322293281
F		-1.672468876		-0.36766696		-2.217731205
F		2.06597216		-0.352046826		0.756771921
F		0.049523544		1.820731382		-3.79771777
F		-0.359082538		1.930003537		-0.767018415
F		2.586483049		2.422571733		-0.31961882
F		1.264540399		0.041651016		-1.627955473
F		0.440261575		1.537328839		1.611502286
F		2.54385529		0.595405147		3.624388433
F		0.018644087		-1.198417675		2.814320058
