12
-187.38518821
Al		1.283499827		0.047933697		2.443377496
Al		1.291538578		1.172034942		-0.090882427
Al		-0.31822942		0.834774545		-2.322707731
F		-1.690403926		-0.34674961		-2.20825053
F		2.09220311		-0.351398751		0.764650746
F		0.048966294		1.821381332		-3.79742317
F		-0.359389213		1.905720937		-0.75433704
F		2.573418949		2.437808208		-0.31271297
F		1.280993299		0.047102466		-1.649171998
F		0.430176925		1.517849614		1.595088386
F		2.54329804		0.596055097		3.624683033
F		0.000709037		-1.177500325		2.823800733
