12
-187.38518821
Al		1.283510282		0.047921504		2.443371969
Al		1.291716344		1.171827616		-0.090976396
Al		-0.318218965		0.834762352		-2.322713257
F		-1.69064306		-0.346470712		-2.208124121
F		2.092552856		-0.35139011		0.764755797
F		0.048958864		1.821389998		-3.797419242
F		-0.359393302		1.905397169		-0.754167955
F		2.573244761		2.438011361		-0.312620892
F		1.281212671		0.047175152		-1.649454885
F		0.430042463		1.517589891		1.594869534
F		2.54329061		0.596063763		3.624686961
F		0.000469903		-1.177221427		2.823927142
