12
-187.38518821
Al		1.283531192		0.047897118		2.443360915
Al		1.292071876		1.171412964		-0.091164334
Al		-0.318198055		0.834737966		-2.322724309
F		-1.691121328		-0.345912916		-2.207871303
F		2.093252348		-0.351372828		0.764965899
F		0.048944004		1.82140733		-3.797411386
F		-0.35940148		1.904749633		-0.753829785
F		2.572896385		2.438417667		-0.312436736
F		1.281651415		0.047320524		-1.650020659
F		0.429773539		1.517070445		1.59443183
F		2.54327575		0.596081095		3.624694817
F		-8.365e-06		-1.176663631		2.82417996
