12
-187.38518821
Al		1.283541647		0.047884925		2.443355388
Al		1.292249642		1.171205638		-0.091258303
Al		-0.3181876		0.834725773		-2.322729835
F		-1.691360462		-0.345634018		-2.207744894
F		2.093602094		-0.351364187		0.76507095
F		0.048936574		1.821415996		-3.797407458
F		-0.359405569		1.904425865		-0.7536607
F		2.572722197		2.43862082		-0.312344658
F		1.281870787		0.04739321		-1.650303546
F		0.429639077		1.516810722		1.594212978
F		2.54326832		0.596089761		3.624698745
F		-0.000247499		-1.176384733		2.824306369
