12
-187.38518821
Al		1.283562557		0.047860539		2.443344334
Al		1.292605174		1.170790986		-0.091446241
Al		-0.31816669		0.834701387		-2.322740887
F		-1.69183873		-0.345076222		-2.207492076
F		2.094301586		-0.351346905		0.765281052
F		0.048921714		1.821433328		-3.797399602
F		-0.359413747		1.903778329		-0.75332253
F		2.572373821		2.439027126		-0.312160502
F		1.282309531		0.047538582		-1.65086932
F		0.429370153		1.516291276		1.593775274
F		2.54325346		0.596107093		3.624706601
F		-0.000725767		-1.175826937		2.824559187
