12
-187.38518821
Al		1.282726157		0.048835979		2.443786494
Al		1.278383894		1.187377066		-0.083928721
Al		-0.31900309		0.835676827		-2.322298807
F		-1.67270801		-0.367388062		-2.217604796
F		2.066321906		-0.352038185		0.756876972
F		0.049516114		1.820740048		-3.797713842
F		-0.359086627		1.929679769		-0.76684933
F		2.586308861		2.422774886		-0.319526742
F		1.264759771		0.041723702		-1.62823836
F		0.440127113		1.537069116		1.611283434
F		2.54384786		0.595413813		3.624392361
F		0.018404953		-1.198138777		2.814446467
