12
-187.38518821
Al		1.283614832		0.047799574		2.443316699
Al		1.293494004		1.169754356		-0.091916086
Al		-0.318114415		0.834640422		-2.322768517
F		-1.6930344		-0.343681732		-2.206860031
F		2.096050316		-0.3513037		0.765806307
F		0.048884564		1.821476658		-3.797379962
F		-0.359434192		1.902159489		-0.752477105
F		2.571502881		2.440042891		-0.311700112
F		1.283406391		0.047902012		-1.652283755
F		0.428697843		1.514992661		1.592681014
F		2.54321631		0.596150423		3.624726241
F		-0.001921437		-1.174432447		2.825191232
