12
-187.38518821
Al		1.283625287		0.047787381		2.443311172
Al		1.29367177		1.16954703		-0.092010055
Al		-0.31810396		0.834628229		-2.322774043
F		-1.693273534		-0.343402834		-2.206733622
F		2.096400062		-0.351295059		0.765911358
F		0.048877134		1.821485324		-3.797376034
F		-0.359438281		1.901835721		-0.75230802
F		2.571328693		2.440246044		-0.311608034
F		1.283625763		0.047974698		-1.652566642
F		0.428563381		1.514732938		1.592462162
F		2.54320888		0.596159089		3.624730169
F		-0.002160571		-1.174153549		2.825317641
