12
Properties=species:S:1:pos:R:3:forces:R:3 energy=-185.27049719 pbc="F F F"
Al    -1.613553861    2.36838662    -1.277930891    1.167503    -0.77173    -1.08646
Al    -0.713999155    0.17338360600000002    -2.263883574    -3.495886    1.25314    1.919207
Al    -2.402819376    -0.7592005180000001    -0.441739837    0.669287    -2.211276    -1.276441
F    -0.781869541    3.736009236    -0.355697857    0.111601    0.08548    -0.097615
F    -2.829617047    3.280355793    -2.337311792    -0.160246    0.017337    0.004251
F    -1.28006288    -1.585073227    -1.672585761    -0.768212    0.754502    1.367773
F    -2.006728562    1.0780812830000002    0.10117236199999999    0.299376    -0.223344    -0.698133
F    -3.492432963    -1.391798632    0.958033853    -0.163814    -0.492301    -0.056205
F    0.511647198    -0.284820941    -3.496944304    -0.071821    0.416308    0.214971
F    -0.169482525    2.064180914    -2.521222231    0.869951    0.985548    -0.428975
F    -2.481124757    0.540414751    -2.661473028    1.309629    -0.102261    0.357242
F    -0.512710968    0.430864439    -0.385502408    0.232632    0.288597    -0.219617
