      12
SCF Done            -185.27049719
Al           -1.613406861         2.577110620        -1.325938891
Al           -0.651469155         0.151724606        -2.295569574
Al           -2.211141376        -0.516943518        -0.424251837
F            -0.731185541         3.691063236        -0.190601857
F            -3.026057047         3.174490793        -2.305924792
F            -1.516651880        -1.703356227        -1.567744761
F            -2.420859562         1.332287283        -0.157907638
F            -3.331148963        -1.468388632         0.659660853
F             0.544588198        -0.383326941        -3.523682304
F            -0.161761525         2.069460914        -2.445227231
F            -2.431621757         0.479106751        -2.329720028
F            -0.270782968         0.165280439        -0.436257408
