      12
SCF Done            -166.97113271
Al           -1.613406789         2.577110685        -1.325938806
Al           -0.651469170         0.151724604        -2.295570156
Al           -2.211141386        -0.516943512        -0.424251849
F            -0.731185480         3.691063311        -0.190601773
F            -3.026056970         3.174490866        -2.305924719
F            -1.516651888        -1.703356237        -1.567744754
F            -2.420859480         1.332287310        -0.157907615
F            -3.331149130        -1.468388546         0.659660764
F             0.544588090        -0.383326860        -3.523682400
F            -0.161761493         2.069460922        -2.445227122
F            -2.431621757         0.479106751        -2.329720028
F            -0.270782963         0.165280380        -0.436257388
