12
Properties=species:S:1:pos:R:3:forces:R:3 energy=-187.16345625 pbc="F F F"
Al    0.19639439299999997    -0.599292158    1.7075015390000001    0.299859    0.012586    0.001304
Al    2.490493165    -1.696435672    -0.28437609699999994    -0.347825    -0.156    -0.421933
Al    -0.680501981    -1.902795958    -1.199062543    -0.291198    0.174659    0.418611
F    3.505714507    -0.490423993    -1.40271818    0.125873    0.113219    0.192202
F    -1.977797254    -0.5544680879999999    -1.699759397    0.080987    0.028694    -0.229729
F    2.644026395    -3.567430894    -0.614340043    0.122373    -0.052249    0.154181
F    -1.441559566    -3.659699402    -0.9305577199999999    0.133653    -0.104991    -0.125314
F    1.8237703969999999    -1.583227593    1.4444198019999999    0.001008    0.12785    -0.066424
F    1.045118564    -1.443259682    -1.471638865    0.004273    -0.008316    -0.004308
F    0.214581352    -1.144023763    3.470749489    -0.121817    -0.01565    0.00975
F    0.32975377100000003    1.156383299    1.238260336    0.026346    0.008387    -0.001024
F    -0.946226468    -1.3864097830000002    0.569035414    -0.033532    -0.128192    0.072684
