12
Properties=species:S:1:pos:R:3:forces:R:3 energy=-186.24557800 pbc="F F F"
Al    -0.020390857    1.597033196    2.139754921    -0.279847    0.391969    -0.206271
Al    2.521622296    2.5865282250000003    1.6680959750000002    -0.347195    0.273362    -0.165584
Al    1.373618858    2.515116181    -0.733393053    0.694213    -0.446785    0.394241
F    1.068885552    3.092216519    2.779175432    0.016396    0.0045    0.08761
F    -1.458648347    2.7702655430000003    2.3063190949999997    -0.094098    -0.181418    -0.058579
F    -0.46980326    -0.048570418000000004    2.81176106    0.103062    -0.229261    0.044157
F    1.7616831689999999    0.841514385    1.755854034    -0.103767    -0.08569    -0.066512
F    2.933326742    1.6765094719999998    -0.068511254    -0.175272    0.12057    0.13248
F    0.9730657140000001    3.251967352    -2.360821004    -0.173605    0.144207    -0.25508
F    1.882431868    3.943329387    0.45502806500000004    0.017305    -0.031341    0.16397
F    3.938596166    3.400070811    2.930423968    0.562818    -0.021348    -0.165161
F    -0.0709818    1.780233168    0.163425105    -0.220009    0.061233    0.094729
