12
Properties=species:S:1:pos:R:3:forces:R:3 energy=-187.38120224 pbc="F F F"
Al    1.4086036800000001    -0.20527008300000002    2.348342473    -0.292147    -0.234983    -0.032289
Al    1.2070534    1.2747126    -0.025133399999999993    0.022741    -0.009674    0.04193
Al    -0.369208162    0.99678225    -2.289990573    0.226395    0.263523    -0.14007
F    -1.606113572    -0.363523453    -2.2926286059999996    -0.1614    -0.145329    0.016153
F    2.239926653    -0.256768153    0.639571252    0.01657    0.019459    -0.024015
F    -0.09553306099999999    2.13163529    -3.679433933    -0.043656    -0.091075    0.118581
F    -0.49618761    1.9163275530000001    -0.641827449    -0.028887    -0.013336    -0.015885
F    2.379245357    2.677438112    -0.14715064300000003    0.004467    0.006624    -0.005267
F    1.303520639    0.25835120500000003    -1.680570654    -0.020099    -0.017221    -0.011384
F    0.319934317    1.292595229    1.6919278389999999    0.009541    0.026829    -0.018311
F    2.557915769    0.44661727599999995    3.6126408370000003    0.12018    0.056576    0.10132
F    0.32960547500000004    -1.666087352    2.579710471    0.146295    0.138606    -0.030764
