12
Properties=species:S:1:pos:R:3:forces:R:3 energy=-186.77554209 pbc="F F F"
Al    1.1563781800000001    0.16329231700000002    2.525369073    0.947846    -0.927047    -0.866832
Al    1.3633975    1.0943275000000001    -0.127861    -0.885103    0.637898    0.402782
Al    -0.457272562    0.95598725    -2.276193773    1.180819    -1.041499    -0.17356
F    -1.682607172    -0.563990953    -2.2606911060000003    -0.767173    0.088669    0.231962
F    2.0615737530000002    -0.33852495299999996    0.871125952    0.047791    -0.000462    -0.33928
F    0.172273639    1.79064829    -3.914764333    -0.246259    0.691651    -0.219518
F    -0.34057081    2.017536253    -0.6759575489999999    -0.146463    0.036624    -0.214126
F    2.6108845570000003    2.473205012    -0.319459943    0.361974    0.001604    -0.121383
F    1.194920239    0.087210905    -1.707680254    0.238284    -0.094042    0.22754
F    0.409942117    1.648849929    1.557269039    0.012343    -0.041386    0.258408
F    2.7083604689999996    0.544808076    3.6315804369999998    -0.000752    0.571055    0.511002
F    0.01673417499999999    -1.398785852    2.795838571    -0.743307    0.076936    0.303003
