12
Properties=species:S:1:pos:R:3:forces:R:3 energy=-185.73100768 pbc="F F F"
Al    -0.05583892800000001    -2.140146311    -1.4728850610000002    -0.297542    -0.45883    0.384622
Al    1.86754003    -0.307706456    -0.815957724    0.421794    0.365732    -0.063139
Al    -0.49651930600000005    0.539982803    -1.826450783    0.038321    0.520363    -0.258458
F    3.536034188    0.031130783999999995    -0.15085152300000002    0.055801    0.021815    0.034431
F    -0.552946574    -3.903029493    -1.692630836    -0.078085    -0.280999    -0.051686
F    1.8317868380000002    -1.8120723760000002    -2.1325947889999997    0.270411    -0.124065    -0.294044
F    1.393781495    0.689688839    -2.40649292    -0.013296    -0.008217    -0.005511
F    -1.561787722    1.8591727310000001    -2.3234892109999996    -0.050244    0.070091    -0.010186
F    -1.330019586    -0.933026652    -0.777217569    -0.091992    -0.171604    0.167589
F    -0.38152187400000004    -1.0183969089999998    -3.075883181    -0.01683    -0.00748    -0.410271
F    0.44528379599999995    0.775058198    -0.10782730200000001    -0.080855    0.222163    0.38657
F    0.883289134    -1.72670301    0.166071727    -0.157483    -0.148968    0.120082
