12
Properties=species:S:1:pos:R:3:forces:R:3 energy=-186.33615365 pbc="F F F"
Al    0.030536343000000007    1.712537496    2.205142521    -0.05407    0.159854    0.613163
Al    2.290538296    2.631182625    1.5572459749999998    -0.144149    0.044017    -0.234667
Al    1.503528858    2.673571281    -0.43937185300000003    0.268841    0.121774    -0.024691
F    1.004345452    3.257609319    2.974571932    -0.034978    0.112968    0.030903
F    -1.5377645469999999    2.612792343    2.192644595    -0.123315    0.085332    -0.026712
F    -0.5037957599999999    0.09471238200000001    2.7077287599999997    -0.06725    -0.148687    -0.037713
F    2.064186569    0.766001185    1.956055334    0.434972    -0.045576    -0.135491
F    3.207143742    1.588797872    -0.312188654    0.08948    -0.101922    0.149722
F    1.1203417139999998    2.938899552    -2.059265104    -0.087699    -0.032909    -0.058892
F    1.7324617679999998    4.3465480869999995    0.784787465    0.103262    0.016714    0.234051
F    3.718732266    2.987032811    2.295733068    -0.114206    -0.064183    -0.069865
F    -0.1872171    1.7354712680000002    -0.06360439500000001    -0.270888    -0.147382    -0.439809
