12
Properties=species:S:1:pos:R:3:forces:R:3 energy=-187.15528496 pbc="F F F"
Al    0.397363093    -0.582053158    1.783450839    0.003521    -0.110341    0.473601
Al    2.376327965    -1.7910426720000001    -0.542200497    -0.257181    0.116357    -0.27629
Al    -0.953208881    -1.8363338580000002    -1.014277243    0.176334    -0.030436    -0.155215
F    3.1209858070000003    -0.166612193    -1.0957887800000001    0.28838    0.436578    -0.130174
F    -1.694067754    -0.636029388    -2.218219697    -0.269034    0.31372    -0.361114
F    3.2405841950000003    -3.454142994    -0.556656743    0.195355    -0.565718    -0.099577
F    -1.581462566    -3.585471502    -0.69068472    -0.053135    -0.511877    0.041868
F    1.801897597    -1.663635193    1.224567602    0.201367    -0.308752    0.361125
F    0.832513664    -2.016092082    -1.583306265    0.090163    -0.00134    0.012613
F    -0.090770148    -1.3945625629999998    3.357885889    -0.04909    -0.066047    0.160572
F    0.805201471    1.222276399    1.540100436    0.167557    0.712399    -0.162789
F    -1.0159734679999999    -0.965293983    0.6220892140000001    -0.494237    0.015457    0.135378
