12
-186.56215295
Al		-0.364069555		1.033497419		-1.819477047
Al		-0.447869362		1.074280437		1.281665274
Al		-3.019904578		0.458472189		-1.858811663
F		-3.531697061		0.314697091		-3.599726879
F		-1.377090072		-0.562038259		-1.842500455
F		-1.945375949		2.06625398		-1.892198936
F		-2.034180929		0.71536042		0.455732126
F		0.596312141		1.270423789		-0.294780377
F		-0.301452267		2.739150271		1.990648882
F		0.366467282		-0.354804132		2.050052482
F		-4.276752448		0.211345897		-0.580802479
F		0.747073161		1.246151563		-3.233900702
