12
-186.56215295
Al		-0.364557042		1.035753068		-1.819520068
Al		-0.447785553		1.073892643		1.281672677
Al		-3.019711803		0.45758021		-1.858794657
F		-3.531587127		0.314188396		-3.599717177
F		-1.375879126		-0.560948764		-1.844884342
F		-1.946947365		2.066832481		-1.889846861
F		-2.033331201		0.711428635		0.455807113
F		0.595165116		1.275731201		-0.294881599
F		-0.297440413		2.739421608		1.988461103
F		0.362684096		-0.356133603		2.052260446
F		-4.276847939		0.211787778		-0.580810905
F		0.747739123		1.243070023		-3.23384194
