12
-186.56215295
Al		-0.364645676		1.036163186		-1.81952789
Al		-0.447770315		1.073822135		1.281674023
Al		-3.019676753		0.457418032		-1.858791565
F		-3.531567139		0.314095906		-3.599715413
F		-1.375658954		-0.560750674		-1.845317776
F		-1.947233077		2.066937663		-1.889419211
F		-2.033176705		0.710713765		0.455820747
F		0.594956566		1.276696185		-0.294900003
F		-0.296710985		2.739470942		1.988063325
F		0.361996244		-0.356375325		2.052661894
F		-4.276865301		0.21186812		-0.580812437
F		0.747860207		1.242509743		-3.233831256
