12
-186.56215295
Al		-0.36473431		1.036573304		-1.819535712
Al		-0.447755077		1.073751627		1.281675369
Al		-3.019641703		0.457255854		-1.858788473
F		-3.531547151		0.314003416		-3.599713649
F		-1.375438782		-0.560552584		-1.84575121
F		-1.947518789		2.067042845		-1.888991561
F		-2.033022209		0.709998895		0.455834381
F		0.594748016		1.277661169		-0.294918407
F		-0.295981557		2.739520276		1.987665547
F		0.361308392		-0.356617047		2.053063342
F		-4.276882663		0.211948462		-0.580813969
F		0.747981291		1.241949463		-3.233820572
