12
-186.56215295
Al		-0.364778627		1.036778363		-1.819539623
Al		-0.447747458		1.073716373		1.281676042
Al		-3.019624178		0.457174765		-1.858786927
F		-3.531537157		0.313957171		-3.599712767
F		-1.375328696		-0.560453539		-1.845967927
F		-1.947661645		2.067095436		-1.888777736
F		-2.032944961		0.70964146		0.455841198
F		0.594643741		1.278143661		-0.294927609
F		-0.295616843		2.739544943		1.987466658
F		0.360964466		-0.356737908		2.053264066
F		-4.276891344		0.211988633		-0.580814735
F		0.748041833		1.241669323		-3.23381523
