12
-186.56215295
Al		-0.364867261		1.037188481		-1.819547445
Al		-0.44773222		1.073645865		1.281677388
Al		-3.019589128		0.457012587		-1.858783835
F		-3.531517169		0.313864681		-3.599711003
F		-1.375108524		-0.560255449		-1.846401361
F		-1.947947357		2.067200618		-1.888350086
F		-2.032790465		0.70892659		0.455854832
F		0.594435191		1.279108645		-0.294946013
F		-0.294887415		2.739594277		1.98706888
F		0.360276614		-0.35697963		2.053665514
F		-4.276908706		0.212068975		-0.580816267
F		0.748162917		1.241109043		-3.233804546
