12
-186.56215295
Al		-0.364955895		1.037598599		-1.819555267
Al		-0.447716982		1.073575357		1.281678734
Al		-3.019554078		0.456850409		-1.858780743
F		-3.531497181		0.313772191		-3.599709239
F		-1.374888352		-0.560057359		-1.846834795
F		-1.948233069		2.0673058		-1.887922436
F		-2.032635969		0.70821172		0.455868466
F		0.594226641		1.280073629		-0.294964417
F		-0.294157987		2.739643611		1.986671102
F		0.359588762		-0.357221352		2.054066962
F		-4.276926068		0.212149317		-0.580817799
F		0.748284001		1.240548763		-3.233793862
