12
-186.56215295
Al		-0.365044529		1.038008717		-1.819563089
Al		-0.447701744		1.073504849		1.28168008
Al		-3.019519028		0.456688231		-1.858777651
F		-3.531477193		0.313679701		-3.599707475
F		-1.37466818		-0.559859269		-1.847268229
F		-1.948518781		2.067410982		-1.887494786
F		-2.032481473		0.70749685		0.4558821
F		0.594018091		1.281038613		-0.294982821
F		-0.293428559		2.739692945		1.986273324
F		0.35890091		-0.357463074		2.05446841
F		-4.27694343		0.212229659		-0.580819331
F		0.748405085		1.239988483		-3.233783178
