12
-186.56215295
Al		-0.365266114		1.039034012		-1.819582644
Al		-0.447663649		1.073328579		1.281683445
Al		-3.019431403		0.456282786		-1.858769921
F		-3.531427223		0.313448476		-3.599703065
F		-1.37411775		-0.559364044		-1.848351814
F		-1.949233061		2.067673937		-1.886425661
F		-2.032095233		0.705709675		0.455916185
F		0.593496716		1.283451073		-0.295028831
F		-0.291604989		2.73981628		1.985278879
F		0.35718128		-0.358067379		2.05547203
F		-4.276986835		0.212430514		-0.580823161
F		0.748707795		1.238587783		-3.233756468
