12
-186.56215295
Al		-0.365664967		1.040879543		-1.819617843
Al		-0.447595078		1.073011293		1.281689502
Al		-3.019273678		0.455552985		-1.858756007
F		-3.531337277		0.313032271		-3.599695127
F		-1.373126976		-0.558472639		-1.850302267
F		-1.950518765		2.068147256		-1.884501236
F		-2.031400001		0.70249276		0.455977538
F		0.592558241		1.287793501		-0.295111649
F		-0.288322563		2.740038283		1.983488878
F		0.354085946		-0.359155128		2.057278546
F		-4.277064964		0.212792053		-0.580830055
F		0.749252673		1.236066523		-3.23370839
