12
-186.56215295
Al		-0.366019503		1.042520015		-1.819649131
Al		-0.447534126		1.072729261		1.281694886
Al		-3.019133478		0.454904273		-1.858743639
F		-3.531257325		0.312662311		-3.599688071
F		-1.372246288		-0.557680279		-1.852036003
F		-1.951661613		2.068567984		-1.882790636
F		-2.030782017		0.69963328		0.456032074
F		0.591724041		1.291653437		-0.295185265
F		-0.285404851		2.740235619		1.981897766
F		0.351334538		-0.360122016		2.058884338
F		-4.277134412		0.213113421		-0.580836183
F		0.749737009		1.233825403		-3.233665654
