12
-186.56215295
Al		-0.366152454		1.043135192		-1.819660864
Al		-0.447511269		1.072623499		1.281696905
Al		-3.019080903		0.454661006		-1.858739001
F		-3.531227343		0.312523576		-3.599685425
F		-1.37191603		-0.557383144		-1.852686154
F		-1.952090181		2.068725757		-1.882149161
F		-2.030550273		0.698560975		0.456052525
F		0.591411216		1.293100913		-0.295212871
F		-0.284310709		2.74030962		1.981301099
F		0.35030276		-0.360484599		2.05948651
F		-4.277160455		0.213233934		-0.580838481
F		0.749918635		1.232984983		-3.233649628
