12
-186.56215295
Al		-0.366329722		1.043955428		-1.819676508
Al		-0.447480793		1.072482483		1.281699597
Al		-3.019010803		0.45433665		-1.858732817
F		-3.531187367		0.312338596		-3.599681897
F		-1.371475686		-0.556986964		-1.853553022
F		-1.952661605		2.068936121		-1.881293861
F		-2.030241281		0.697131235		0.456079793
F		0.590994116		1.295030881		-0.295249679
F		-0.282851853		2.740408288		1.980505543
F		0.348927056		-0.360968043		2.060289406
F		-4.277195179		0.213394618		-0.580841545
F		0.750160803		1.231864423		-3.23362826
