12
-186.56215295
Al		-0.366418356		1.044365546		-1.81968433
Al		-0.447465555		1.072411975		1.281700943
Al		-3.018975753		0.454174472		-1.858729725
F		-3.531167379		0.312246106		-3.599680133
F		-1.371255514		-0.556788874		-1.853986456
F		-1.952947317		2.069041303		-1.880866211
F		-2.030086785		0.696416365		0.456093427
F		0.590785566		1.295995865		-0.295268083
F		-0.282122425		2.740457622		1.980107765
F		0.348239204		-0.361209765		2.060690854
F		-4.277212541		0.21347496		-0.580843077
F		0.750281887		1.231304143		-3.233617576
