12
-186.56215295
Al		-0.366462673		1.044570605		-1.819688241
Al		-0.447457936		1.072376721		1.281701616
Al		-3.018958228		0.454093383		-1.858728179
F		-3.531157385		0.312199861		-3.599679251
F		-1.371145428		-0.556689829		-1.854203173
F		-1.953090173		2.069093894		-1.880652386
F		-2.030009537		0.69605893		0.456100244
F		0.590681291		1.296478357		-0.295277285
F		-0.281757711		2.740482289		1.979908876
F		0.347895278		-0.361330626		2.060891578
F		-4.277221222		0.213515131		-0.580843843
F		0.750342429		1.231024003		-3.233612234
