12
-186.56215295
Al		-0.366551307		1.044980723		-1.819696063
Al		-0.447442698		1.072306213		1.281702962
Al		-3.018923178		0.453931205		-1.858725087
F		-3.531137397		0.312107371		-3.599677487
F		-1.370925256		-0.556491739		-1.854636607
F		-1.953375885		2.069199076		-1.880224736
F		-2.029855041		0.69534406		0.456113878
F		0.590472741		1.297443341		-0.295295689
F		-0.281028283		2.740531623		1.979511098
F		0.347207426		-0.361572348		2.061293026
F		-4.277238584		0.213595473		-0.580845375
F		0.750463513		1.230463723		-3.23360155
