12
-186.56215295
Al		-0.36429114		1.034522714		-1.819496602
Al		-0.447831267		1.074104167		1.281668639
Al		-3.019816953		0.458066744		-1.858803933
F		-3.531647091		0.314465866		-3.599722469
F		-1.376539642		-0.561543034		-1.84358404
F		-1.946090229		2.066516935		-1.891129811
F		-2.033794689		0.713573245		0.455766211
F		0.595790766		1.272836249		-0.294826387
F		-0.299628697		2.739273606		1.989654437
F		0.364747652		-0.355408437		2.051056102
F		-4.276795853		0.211546752		-0.580806309
F		0.747375871		1.244750863		-3.233873992
