12
-186.56215295
Al		-0.366684258		1.0455959		-1.819707796
Al		-0.447419841		1.072200451		1.281704981
Al		-3.018870603		0.453687938		-1.858720449
F		-3.531107415		0.311968636		-3.599674841
F		-1.370594998		-0.556194604		-1.855286758
F		-1.953804453		2.069356849		-1.879583261
F		-2.029623297		0.694271755		0.456134329
F		0.590159916		1.298890817		-0.295323295
F		-0.279934141		2.740605624		1.978914431
F		0.346175648		-0.361934931		2.061895198
F		-4.277264627		0.213715986		-0.580847673
F		0.750645139		1.229623303		-3.233585524
