12
-186.56215295
Al		-0.366772892		1.046006018		-1.819715618
Al		-0.447404603		1.072129943		1.281706327
Al		-3.018835553		0.45352576		-1.858717357
F		-3.531087427		0.311876146		-3.599673077
F		-1.370374826		-0.555996514		-1.855720192
F		-1.954090165		2.069462031		-1.879155611
F		-2.029468801		0.693556885		0.456147963
F		0.589951366		1.299855801		-0.295341699
F		-0.279204713		2.740654958		1.978516653
F		0.345487796		-0.362176653		2.062296646
F		-4.277281989		0.213796328		-0.580849205
F		0.750766223		1.229063023		-3.23357484
