12
-186.56215295
Al		-0.367038794		1.047236372		-1.819739084
Al		-0.447358889		1.071918419		1.281710365
Al		-3.018730403		0.453039226		-1.858708081
F		-3.531027463		0.311598676		-3.599667785
F		-1.36971431		-0.555402244		-1.857020494
F		-1.954947301		2.069777577		-1.877872661
F		-2.029005313		0.691412275		0.456188865
F		0.589325716		1.302750753		-0.295396911
F		-0.277016429		2.74080296		1.977323319
F		0.34342424		-0.362901819		2.06350099
F		-4.277334075		0.214037354		-0.580853801
F		0.751129475		1.227382183		-3.233542788
