12
-186.56215295
Al		-0.367216062		1.048056608		-1.819754728
Al		-0.447328413		1.071777403		1.281713057
Al		-3.018660303		0.45271487		-1.858701897
F		-3.530987487		0.311413696		-3.599664257
F		-1.369273966		-0.555006064		-1.857887362
F		-1.955518725		2.069987941		-1.877017361
F		-2.028696321		0.689982535		0.456216133
F		0.588908616		1.304680721		-0.295433719
F		-0.275557573		2.740901628		1.976527763
F		0.342048536		-0.363385263		2.064303886
F		-4.277368799		0.214198038		-0.580856865
F		0.751371643		1.226261623		-3.23352142
