12
-186.56215295
Al		-0.367526281		1.049492021		-1.819782105
Al		-0.44727508		1.071530625		1.281717768
Al		-3.018537628		0.452147247		-1.858691075
F		-3.530917529		0.311089981		-3.599658083
F		-1.368503364		-0.554312749		-1.859404381
F		-1.956518717		2.070356078		-1.875520586
F		-2.028155585		0.68748049		0.456263852
F		0.588178691		1.308058165		-0.295498133
F		-0.273004575		2.741074297		1.97513554
F		0.339641054		-0.36423129		2.065708954
F		-4.277429566		0.214479235		-0.580862227
F		0.751795437		1.224300643		-3.233484026
