12
-186.56215295
Al		-0.364379774		1.034932832		-1.819504424
Al		-0.447816029		1.074033659		1.281669985
Al		-3.019781903		0.457904566		-1.858800841
F		-3.531627103		0.314373376		-3.599720705
F		-1.37631947		-0.561344944		-1.844017474
F		-1.946375941		2.066622117		-1.890702161
F		-2.033640193		0.712858375		0.455779845
F		0.595582216		1.273801233		-0.294844791
F		-0.298899269		2.73932294		1.989256659
F		0.3640598		-0.355650159		2.05145755
F		-4.276813215		0.211627094		-0.580807841
F		0.747496955		1.244190583		-3.233863308
