12
-186.56215295
Al		-0.367570598		1.04969708		-1.819786016
Al		-0.447267461		1.071495371		1.281718441
Al		-3.018520103		0.452066158		-1.858689529
F		-3.530907535		0.311043736		-3.599657201
F		-1.368393278		-0.554213704		-1.859621098
F		-1.956661573		2.070408669		-1.875306761
F		-2.028078337		0.687123055		0.456270669
F		0.588074416		1.308540657		-0.295507335
F		-0.272639861		2.741098964		1.974936651
F		0.339297128		-0.364352151		2.065909678
F		-4.277438247		0.214519406		-0.580862993
F		0.751855979		1.224020503		-3.233478684
