12
-186.56215295
Al		-0.367703549		1.050312257		-1.819797749
Al		-0.447244604		1.071389609		1.28172046
Al		-3.018467528		0.451822891		-1.858684891
F		-3.530877553		0.310905001		-3.599654555
F		-1.36806302		-0.553916569		-1.860271249
F		-1.957090141		2.070566442		-1.874665286
F		-2.027846593		0.68605075		0.45629112
F		0.587761591		1.309988133		-0.295534941
F		-0.271545719		2.741172965		1.974339984
F		0.33826535		-0.364714734		2.06651185
F		-4.27746429		0.214639919		-0.580865291
F		0.752037605		1.223180083		-3.233462658
