12
-186.56215295
Al		-0.367925134		1.051337552		-1.819817304
Al		-0.447206509		1.071213339		1.281723825
Al		-3.018379903		0.451417446		-1.858677161
F		-3.530827583		0.310673776		-3.599650145
F		-1.36751259		-0.553421344		-1.861354834
F		-1.957804421		2.070829397		-1.873596161
F		-2.027460353		0.684263575		0.456325205
F		0.587240216		1.312400593		-0.295580951
F		-0.269722149		2.7412963		1.973345539
F		0.33654572		-0.365319039		2.06751547
F		-4.277507695		0.214840774		-0.580869121
F		0.752340315		1.221779383		-3.233435948
