12
-186.56215295
Al		-0.367969451		1.051542611		-1.819821215
Al		-0.44719889		1.071178085		1.281724498
Al		-3.018362378		0.451336357		-1.858675615
F		-3.530817589		0.310627531		-3.599649263
F		-1.367402504		-0.553322299		-1.861571551
F		-1.957947277		2.070881988		-1.873382336
F		-2.027383105		0.68390614		0.456332022
F		0.587135941		1.312883085		-0.295590153
F		-0.269357435		2.741320967		1.97314665
F		0.336201794		-0.3654399		2.067716194
F		-4.277516376		0.214880945		-0.580869887
F		0.752400857		1.221499243		-3.233430606
