12
-186.56215295
Al		-0.368058085		1.051952729		-1.819829037
Al		-0.447183652		1.071107577		1.281725844
Al		-3.018327328		0.451174179		-1.858672523
F		-3.530797601		0.310535041		-3.599647499
F		-1.367182332		-0.553124209		-1.862004985
F		-1.958232989		2.07098717		-1.872954686
F		-2.027228609		0.68319127		0.456345656
F		0.586927391		1.313848069		-0.295608557
F		-0.268628007		2.741370301		1.972748872
F		0.335513942		-0.365681622		2.068117642
F		-4.277533738		0.214961287		-0.580871419
F		0.752521941		1.220938963		-3.233419922
