12
-186.56215295
Al		-0.368235353		1.052772965		-1.819844681
Al		-0.447153176		1.070966561		1.281728536
Al		-3.018257228		0.450849823		-1.858666339
F		-3.530757625		0.310350061		-3.599643971
F		-1.366741988		-0.552728029		-1.862871853
F		-1.958804413		2.071197534		-1.872099386
F		-2.026919617		0.68176153		0.456372924
F		0.586510291		1.315778037		-0.295645365
F		-0.267169151		2.741468969		1.971953316
F		0.334138238		-0.366165066		2.068920538
F		-4.277568462		0.215121971		-0.580874483
F		0.752764109		1.219818403		-3.233398554
