12
-186.56215295
Al		-0.368323987		1.053183083		-1.819852503
Al		-0.447137938		1.070896053		1.281729882
Al		-3.018222178		0.450687645		-1.858663247
F		-3.530737637		0.310257571		-3.599642207
F		-1.366521816		-0.552529939		-1.863305287
F		-1.959090125		2.071302716		-1.871671736
F		-2.026765121		0.68104666		0.456386558
F		0.586301741		1.316743021		-0.295663769
F		-0.266439723		2.741518303		1.971555538
F		0.333450386		-0.366406788		2.069321986
F		-4.277585824		0.215202313		-0.580876015
F		0.752885193		1.219258123		-3.23338787
