12
-186.56215295
Al		-0.368412621		1.053593201		-1.819860325
Al		-0.4471227		1.070825545		1.281731228
Al		-3.018187128		0.450525467		-1.858660155
F		-3.530717649		0.310165081		-3.599640443
F		-1.366301644		-0.552331849		-1.863738721
F		-1.959375837		2.071407898		-1.871244086
F		-2.026610625		0.68033179		0.456400192
F		0.586093191		1.317708005		-0.295682173
F		-0.265710295		2.741567637		1.97115776
F		0.332762534		-0.36664851		2.069723434
F		-4.277603186		0.215282655		-0.580877547
F		0.753006277		1.218697843		-3.233377186
