12
-186.56215295
Al		-0.363316166		1.030011416		-1.81941056
Al		-0.447998885		1.074879755		1.281653833
Al		-3.020202503		0.459850702		-1.858837945
F		-3.531866959		0.315483256		-3.599741873
F		-1.378961534		-0.563722024		-1.838816266
F		-1.942947397		2.065359933		-1.895833961
F		-2.035494145		0.721436815		0.455616237
F		0.598084816		1.262221425		-0.294623943
F		-0.307652405		2.738730932		1.994029995
F		0.372314024		-0.352749495		2.046640174
F		-4.276604871		0.21066299		-0.580789457
F		0.746043947		1.250913943		-3.233991516
