12
-186.56215295
Al		-0.363227532		1.029601298		-1.819402738
Al		-0.448014123		1.074950263		1.281652487
Al		-3.020237553		0.46001288		-1.858841037
F		-3.531886947		0.315575746		-3.599743637
F		-1.379181706		-0.563920114		-1.838382832
F		-1.942661685		2.065254751		-1.896261611
F		-2.035648641		0.722151685		0.455602603
F		0.598293366		1.261256441		-0.294605539
F		-0.308381833		2.738681598		1.994427773
F		0.373001876		-0.352507773		2.046238726
F		-4.276587509		0.210582648		-0.580787925
F		0.745922863		1.251474223		-3.2340022
