12
-186.56215295
Al		-0.363094581		1.028986121		-1.819391005
Al		-0.44803698		1.075056025		1.281650468
Al		-3.020290128		0.460256147		-1.858845675
F		-3.531916929		0.315714481		-3.599746283
F		-1.379511964		-0.564217249		-1.837732681
F		-1.942233117		2.065096978		-1.896903086
F		-2.035880385		0.72322399		0.455582152
F		0.598606191		1.259808965		-0.294577933
F		-0.309475975		2.738607597		1.99502444
F		0.374033654		-0.35214519		2.045636554
F		-4.276561466		0.210462135		-0.580785627
F		0.745741237		1.252314643		-3.234018226
