12
-186.56215295
Al		-0.363005947		1.028576003		-1.819383183
Al		-0.448052218		1.075126533		1.281649122
Al		-3.020325178		0.460418325		-1.858848767
F		-3.531936917		0.315806971		-3.599748047
F		-1.379732136		-0.564415339		-1.837299247
F		-1.941947405		2.064991796		-1.897330736
F		-2.036034881		0.72393886		0.455568518
F		0.598814741		1.258843981		-0.294559529
F		-0.310205403		2.738558263		1.995422218
F		0.374721506		-0.351903468		2.045235106
F		-4.276544104		0.210381793		-0.580784095
F		0.745620153		1.252874923		-3.23402891
