12
-186.56215295
Al		-0.36296163		1.028370944		-1.819379272
Al		-0.448059837		1.075161787		1.281648449
Al		-3.020342703		0.460499414		-1.858850313
F		-3.531946911		0.315853216		-3.599748929
F		-1.379842222		-0.564514384		-1.83708253
F		-1.941804549		2.064939205		-1.897544561
F		-2.036112129		0.724296295		0.455561701
F		0.598919016		1.258361489		-0.294550327
F		-0.310570117		2.738533596		1.995621107
F		0.375065432		-0.351782607		2.045034382
F		-4.276535423		0.210341622		-0.580783329
F		0.745559611		1.253155063		-3.234034252
