12
-186.56215295
Al		-0.362917313		1.028165885		-1.819375361
Al		-0.448067456		1.075197041		1.281647776
Al		-3.020360228		0.460580503		-1.858851859
F		-3.531956905		0.315899461		-3.599749811
F		-1.379952308		-0.564613429		-1.836865813
F		-1.941661693		2.064886614		-1.897758386
F		-2.036189377		0.72465373		0.455554884
F		0.599023291		1.257878997		-0.294541125
F		-0.310934831		2.738508929		1.995819996
F		0.375409358		-0.351661746		2.044833658
F		-4.276526742		0.210301451		-0.580782563
F		0.745499069		1.253435203		-3.234039594
