12
-186.56215295
Al		-0.362872996		1.027960826		-1.81937145
Al		-0.448075075		1.075232295		1.281647103
Al		-3.020377753		0.460661592		-1.858853405
F		-3.531966899		0.315945706		-3.599750693
F		-1.380062394		-0.564712474		-1.836649096
F		-1.941518837		2.064834023		-1.897972211
F		-2.036266625		0.725011165		0.455548067
F		0.599127566		1.257396505		-0.294531923
F		-0.311299545		2.738484262		1.996018885
F		0.375753284		-0.351540885		2.044632934
F		-4.276518061		0.21026128		-0.580781797
F		0.745438527		1.253715343		-3.234044936
