12
-186.56215295
Al		-0.362740045		1.027345649		-1.819359717
Al		-0.448097932		1.075338057		1.281645084
Al		-3.020430328		0.460904859		-1.858858043
F		-3.531996881		0.316084441		-3.599753339
F		-1.380392652		-0.565009609		-1.835998945
F		-1.941090269		2.06467625		-1.898613686
F		-2.036498369		0.72608347		0.455527616
F		0.599440391		1.255949029		-0.294504317
F		-0.312393687		2.738410261		1.996615552
F		0.376785062		-0.351178302		2.044030762
F		-4.276492018		0.210140767		-0.580779499
F		0.745256901		1.254555763		-3.234060962
