12
-186.56215295
Al		-0.362429826		1.025910236		-1.81933234
Al		-0.448151265		1.075584835		1.281640373
Al		-3.020553003		0.461472482		-1.858868865
F		-3.532066839		0.316408156		-3.599759513
F		-1.381163254		-0.565702924		-1.834481926
F		-1.940090277		2.064308113		-1.900110461
F		-2.037039105		0.728585515		0.455479897
F		0.600170316		1.252571585		-0.294439903
F		-0.314946685		2.738237592		1.998007775
F		0.379192544		-0.350332275		2.042625694
F		-4.276431251		0.20985957		-0.580774137
F		0.744833107		1.256516743		-3.234098356
