12
-186.56215295
Al		-0.362252558		1.02509		-1.819316696
Al		-0.448181741		1.075725851		1.281637681
Al		-3.020623103		0.461796838		-1.858875049
F		-3.532106815		0.316593136		-3.599763041
F		-1.381603598		-0.566099104		-1.833615058
F		-1.939518853		2.064097749		-1.900965761
F		-2.037348097		0.730015255		0.455452629
F		0.600587416		1.250641617		-0.294403095
F		-0.316405541		2.738138924		1.998803331
F		0.380568248		-0.349848831		2.041822798
F		-4.276396527		0.209698886		-0.580771073
F		0.744590939		1.257637303		-3.234119724
