12
-186.56215295
Al		-0.362163924		1.024679882		-1.819308874
Al		-0.448196979		1.075796359		1.281636335
Al		-3.020658153		0.461959016		-1.858878141
F		-3.532126803		0.316685626		-3.599764805
F		-1.38182377		-0.566297194		-1.833181624
F		-1.939233141		2.063992567		-1.901393411
F		-2.037502593		0.730730125		0.455438995
F		0.600795966		1.249676633		-0.294384691
F		-0.317134969		2.73808959		1.999201109
F		0.3812561		-0.349607109		2.04142135
F		-4.276379165		0.209618544		-0.580769541
F		0.744469855		1.258197583		-3.234130408
