12
-186.56215295
Al		-0.362119607		1.024474823		-1.819304963
Al		-0.448204598		1.075831613		1.281635662
Al		-3.020675678		0.462040105		-1.858879687
F		-3.532136797		0.316731871		-3.599765687
F		-1.381933856		-0.566396239		-1.832964907
F		-1.939090285		2.063939976		-1.901607236
F		-2.037579841		0.73108756		0.455432178
F		0.600900241		1.249194141		-0.294375489
F		-0.317499683		2.738064923		1.999399998
F		0.381600026		-0.349486248		2.041220626
F		-4.276370484		0.209578373		-0.580768775
F		0.744409313		1.258477723		-3.23413575
