12
-186.56215295
Al		-0.36207529		1.024269764		-1.819301052
Al		-0.448212217		1.075866867		1.281634989
Al		-3.020693203		0.462121194		-1.858881233
F		-3.532146791		0.316778116		-3.599766569
F		-1.382043942		-0.566495284		-1.83274819
F		-1.938947429		2.063887385		-1.901821061
F		-2.037657089		0.731444995		0.455425361
F		0.601004516		1.248711649		-0.294366287
F		-0.317864397		2.738040256		1.999598887
F		0.381943952		-0.349365387		2.041019902
F		-4.276361803		0.209538202		-0.580768009
F		0.744348771		1.258757863		-3.234141092
