12
-186.56215295
Al		-0.361898022		1.023449528		-1.819285408
Al		-0.448242693		1.076007883		1.281632297
Al		-3.020763303		0.46244555		-1.858887417
F		-3.532186767		0.316963096		-3.599770097
F		-1.382484286		-0.566891464		-1.831881322
F		-1.938376005		2.063677021		-1.902676361
F		-2.037966081		0.732874735		0.455398093
F		0.601421616		1.246781681		-0.294329479
F		-0.319323253		2.737941588		2.000394443
F		0.383319656		-0.348881943		2.040217006
F		-4.276327079		0.209377518		-0.580764945
F		0.744106603		1.259878423		-3.23416246
