12
-186.56215295
Al		-0.363803653		1.032267065		-1.819453581
Al		-0.447915076		1.074491961		1.281661236
Al		-3.020009728		0.458958723		-1.858820939
F		-3.531757025		0.314974561		-3.599732171
F		-1.377750588		-0.562632529		-1.841200153
F		-1.944518813		2.065938434		-1.893481886
F		-2.034644417		0.71750503		0.455691224
F		0.596937791		1.267528837		-0.294725165
F		-0.303640551		2.739002269		1.991842216
F		0.368530838		-0.354078966		2.048848138
F		-4.276700362		0.211104871		-0.580797883
F		0.746709909		1.247832403		-3.233932754
