12
-186.56215295
Al		-0.361321901		1.020783761		-1.819234565
Al		-0.44834174		1.076466185		1.281623548
Al		-3.020991128		0.463499707		-1.858907515
F		-3.532316689		0.317564281		-3.599781563
F		-1.383915404		-0.568179049		-1.829064001
F		-1.936518877		2.062993338		-1.905456086
F		-2.038970305		0.73752139		0.455309472
F		0.602777191		1.240509285		-0.294209853
F		-0.324064535		2.737620917		2.00298
F		0.387790694		-0.34731075		2.037607594
F		-4.276214226		0.208855295		-0.580754987
F		0.743319557		1.263520243		-3.234231906
