12
-186.56215295
Al		-0.360967365		1.019143289		-1.819203277
Al		-0.448402692		1.076748217		1.281618164
Al		-3.021131328		0.464148419		-1.858919883
F		-3.532396641		0.317934241		-3.599788619
F		-1.384796092		-0.568971409		-1.827330265
F		-1.935376029		2.06257261		-1.907166686
F		-2.039588289		0.74038087		0.455254936
F		0.603611391		1.236649349		-0.294136237
F		-0.326982247		2.737423581		2.004571112
F		0.390542102		-0.346343862		2.036001802
F		-4.276144778		0.208533927		-0.580748859
F		0.742835221		1.265761363		-3.234274642
