12
-186.56215295
Al		-0.360878731		1.018733171		-1.819195455
Al		-0.44841793		1.076818725		1.281616818
Al		-3.021166378		0.464310597		-1.858922975
F		-3.532416629		0.318026731		-3.599790383
F		-1.385016264		-0.569169499		-1.826896831
F		-1.935090317		2.062467428		-1.907594336
F		-2.039742785		0.74109574		0.455241302
F		0.603819941		1.235684365		-0.294117833
F		-0.327711675		2.737374247		2.00496889
F		0.391229954		-0.34610214		2.035600354
F		-4.276127416		0.208453585		-0.580747327
F		0.742714137		1.266321643		-3.234285326
