12
-186.56215295
Al		-0.360568512		1.017297758		-1.819168078
Al		-0.448471263		1.077065503		1.281612107
Al		-3.021289053		0.46487822		-1.858933797
F		-3.532486587		0.318350446		-3.599796557
F		-1.385786866		-0.569862814		-1.825379812
F		-1.934090325		2.062099291		-1.909091111
F		-2.040283521		0.743597785		0.455193583
F		0.604549866		1.232306921		-0.294053419
F		-0.330264673		2.737201578		2.006361113
F		0.393637436		-0.345256113		2.034195286
F		-4.276066649		0.208172388		-0.580741965
F		0.742290343		1.268282623		-3.23432272
