12
-186.56215295
Al		-0.360346927		1.016272463		-1.819148523
Al		-0.448509358		1.077241773		1.281608742
Al		-3.021376678		0.465283665		-1.858941527
F		-3.532536557		0.318581671		-3.599800967
F		-1.386337296		-0.570358039		-1.824296227
F		-1.933376045		2.061836336		-1.910160236
F		-2.040669761		0.74538496		0.455159498
F		0.605071241		1.229894461		-0.294007409
F		-0.332088243		2.737078243		2.007355558
F		0.395357066		-0.344651808		2.033191666
F		-4.276023244		0.207971533		-0.580738135
F		0.741987633		1.269683323		-3.23434943
