12
-186.56215295
Al		-0.360258293		1.015862345		-1.819140701
Al		-0.448524596		1.077312281		1.281607396
Al		-3.021411728		0.465445843		-1.858944619
F		-3.532556545		0.318674161		-3.599802731
F		-1.386557468		-0.570556129		-1.823862793
F		-1.933090333		2.061731154		-1.910587886
F		-2.040824257		0.74609983		0.455145864
F		0.605279791		1.228929477		-0.293989005
F		-0.332817671		2.737028909		2.007753336
F		0.396044918		-0.344410086		2.032790218
F		-4.276005882		0.207891191		-0.580736603
F		0.741866549		1.270243603		-3.234360114
