12
-186.56215295
Al		-0.360213976		1.015657286		-1.81913679
Al		-0.448532215		1.077347535		1.281606723
Al		-3.021429253		0.465526932		-1.858946165
F		-3.532566539		0.318720406		-3.599803613
F		-1.386667554		-0.570655174		-1.823646076
F		-1.932947477		2.061678563		-1.910801711
F		-2.040901505		0.746457265		0.455139047
F		0.605384066		1.228446985		-0.293979803
F		-0.333182385		2.737004242		2.007952225
F		0.396388844		-0.344289225		2.032589494
F		-4.275997201		0.20785102		-0.580735837
F		0.741806007		1.270523743		-3.234365456
