12
-186.56215295
Al		-0.360125342		1.015247168		-1.819128968
Al		-0.448547453		1.077418043		1.281605377
Al		-3.021464303		0.46568911		-1.858949257
F		-3.532586527		0.318812896		-3.599805377
F		-1.386887726		-0.570853264		-1.823212642
F		-1.932661765		2.061573381		-1.911229361
F		-2.041056001		0.747172135		0.455125413
F		0.605592616		1.227482001		-0.293961399
F		-0.333911813		2.736954908		2.008350003
F		0.397076696		-0.344047503		2.032188046
F		-4.275979839		0.207770678		-0.580734305
F		0.741684923		1.271084023		-3.23437614
