12
-186.56215295
Al		-0.360081025		1.015042109		-1.819125057
Al		-0.448555072		1.077453297		1.281604704
Al		-3.021481828		0.465770199		-1.858950803
F		-3.532596521		0.318859141		-3.599806259
F		-1.386997812		-0.570952309		-1.822995925
F		-1.932518909		2.06152079		-1.911443186
F		-2.041133249		0.74752957		0.455118596
F		0.605696891		1.226999509		-0.293952197
F		-0.334276527		2.736930241		2.008548892
F		0.397420622		-0.343926642		2.031987322
F		-4.275971158		0.207730507		-0.580733539
F		0.741624381		1.271364163		-3.234381482
