12
-186.56215295
Al		-0.35985944		1.014016814		-1.819105502
Al		-0.448593167		1.077629567		1.281601339
Al		-3.021569453		0.466175644		-1.858958533
F		-3.532646491		0.319090366		-3.599810669
F		-1.387548242		-0.571447534		-1.82191234
F		-1.931804629		2.061257835		-1.912512311
F		-2.041519489		0.749316745		0.455084511
F		0.606218266		1.224587049		-0.293906187
F		-0.336100097		2.736806906		2.009543337
F		0.399140252		-0.343322337		2.030983702
F		-4.275927753		0.207529652		-0.580729709
F		0.741321671		1.272764863		-3.234408192
