12
-186.56215295
Al		-0.359770806		1.013606696		-1.81909768
Al		-0.448608405		1.077700075		1.281599993
Al		-3.021604503		0.466337822		-1.858961625
F		-3.532666479		0.319182856		-3.599812433
F		-1.387768414		-0.571645624		-1.821478906
F		-1.931518917		2.061152653		-1.912939961
F		-2.041673985		0.750031615		0.455070877
F		0.606426816		1.223622065		-0.293887783
F		-0.336829525		2.736757572		2.009941115
F		0.399828104		-0.343080615		2.030582254
F		-4.275910391		0.20744931		-0.580728177
F		0.741200587		1.273325143		-3.234418876
