12
Properties=species:S:1:pos:R:3:forces:R:3 energy=-187.28952676 pbc="F F F"
Al    1.20591118    -0.01887158299999999    2.3446072730000003    0.092398    0.005787    -0.00866
Al    1.5866217999999999    1.0500281999999999    -0.2101927    0.209162    -0.469623    -0.147825
Al    -0.328725062    0.7350103499999999    -2.2218345729999998    0.079768    0.011994    -0.046256
F    -1.999751372    -0.05988105300000002    -2.0516722059999997    -0.189559    0.124005    0.107661
F    2.465905053    -0.304409653    0.822801752    0.189061    0.046746    0.035192
F    0.10124213900000001    1.81615409    -3.636186933    -0.008911    0.0116    0.004406
F    -0.33450851    1.508659353    -0.516219249    -0.11834    -0.108127    0.097726
F    2.440418157    2.723672412    -0.220822043    -0.013944    0.248428    0.0457
F    1.550953839    0.14505320500000002    -1.899708354    0.135407    0.073103    -0.124452
F    0.271118517    1.211146529    1.285878439    -0.163027    -0.086175    -0.035245
F    2.489660969    0.642857876    3.4707678370000004    -0.008615    0.011454    0.005289
F    -0.311737525    -0.8891099520000001    2.971156471    -0.2034    0.130808    0.066466
