      12
SCF Done            -187.28952676
Al            1.285768180         0.045287417         2.442178273
Al            1.330113800         1.127045200        -0.111273700
Al           -0.315961062         0.832128350        -2.323906573
F            -1.742296372        -0.286229053        -2.180819206
F             2.168098053        -0.349523653         0.787446752
F             0.047353139         1.823261090        -3.796570933
F            -0.360276510         1.835463353        -0.717645249
F             2.535620157         2.481892412        -0.292732043
F             1.328596839         0.062875205        -1.710558354
F             0.400998517         1.461489529         1.547597439
F             2.541684969         0.597934876         3.625535837
F            -0.051183525        -1.116979952         2.851230471
