12
Properties=species:S:1:pos:R:3:forces:R:3 energy=-184.17175833 pbc="F F F"
Al    0.99168488    0.385712117    2.601175073    -0.006928    -0.02212    0.035694
Al    1.1429556    1.2040168    -0.035668399999999996    -2.033942    -1.91078    0.36809
Al    -0.6123853619999999    1.17370545    -2.171862773    -0.028738    -0.011391    -0.029224
F    -1.653343172    -0.392922253    -2.234164206    -0.026042    0.011145    -0.073854
F    2.108490253    -0.213859353    0.33598945199999997    -2.274977    4.271993    -2.281511
F    0.067377539    1.7933990899999999    -3.808843133    -0.051115    -0.0486    0.010531
F    -0.09876080999999999    1.601222553    -0.978846849    4.521325    -2.16167    1.874977
F    2.466230157    2.2316115119999997    -0.310731243    -2.317756    -2.177411    0.419452
F    1.5601352389999998    0.055514805    -1.295697454    -0.063601    3.185676    4.298635
F    0.7418821170000001    1.188262029    1.522574439    2.309958    -1.075338    -4.705169
F    2.5620683690000003    0.567894876    3.614337237    -0.05193    -0.048203    0.008112
F    0.041211675    -1.225361352    2.808123271    0.023746    -0.013301    0.074269
