12
-186.35103317
Al		-1.700425773		2.559403173		-1.230426438
Al		-0.529265406		0.000382584		-2.345311152
Al		-2.203327106		-0.339145104		-0.517208841
F		-0.759089788		3.685370679		-0.159946213
F		-3.014720246		3.176809458		-2.318334771
F		-1.377183724		-1.674974701		-1.720814726
F		-2.528625192		1.449718794		0.051282037
F		-3.251697094		-1.302923486		0.598610872
F		0.625534186		-0.516152808		-3.63868086
F		-0.333138749		1.895228542		-2.348089018
F		-2.453102669		0.474747907		-2.306152772
F		-0.304697111		0.15836802		-0.399050932
