12
-186.35103317
Al		-1.700354301		2.559417069		-1.230496182
Al		-0.528567418		0.000344044		-2.344605084
Al		-2.204105146		-0.339122168		-0.517836505
F		-0.759642224		3.685253335		-0.159328093
F		-3.013891938		3.176981922		-2.319233855
F		-1.377151136		-1.674966589		-1.72086065
F		-2.529505296		1.449738022		0.050625521
F		-3.253168482		-1.302870466		0.597347108
F		0.626932818		-0.516219324		-3.63735128
F		-0.332393701		1.895180082		-2.34727705
F		-2.452506173		0.474873159		-2.30680862
F		-0.305384027		0.1582243		-0.39829978
