12
-186.35103317
Al		-1.700336433		2.559420543		-1.230513618
Al		-0.528392921		0.000334409		-2.344428567
Al		-2.204299656		-0.339116434		-0.517993421
F		-0.759780333		3.685223999		-0.159173563
F		-3.013684861		3.177025038		-2.319458626
F		-1.377142989		-1.674964561		-1.720872131
F		-2.529725322		1.449742829		0.050461392
F		-3.253536329		-1.302857211		0.597031167
F		0.627282476		-0.516235953		-3.637018885
F		-0.332207439		1.895167967		-2.347074058
F		-2.452357049		0.474904472		-2.306972582
F		-0.305555756		0.15818837		-0.398111992
