12
-186.35103317
Al		-1.700300697		2.559427491		-1.23054849
Al		-0.528043927		0.000315139		-2.344075533
Al		-2.204688676		-0.339104966		-0.518307253
F		-0.760056551		3.685165327		-0.158864503
F		-3.013270707		3.17711127		-2.319908168
F		-1.377126695		-1.674960505		-1.720895093
F		-2.530165374		1.449752443		0.050133134
F		-3.254272023		-1.302830701		0.596399285
F		0.627981792		-0.516269211		-3.636354095
F		-0.331834915		1.895143737		-2.346668074
F		-2.452058801		0.474967098		-2.307300506
F		-0.305899214		0.15811651		-0.397736416
