12
-186.35103317
Al		-1.700604453		2.559368433		-1.230252078
Al		-0.531010376		0.000478934		-2.347076322
Al		-2.201382006		-0.339202444		-0.515639681
F		-0.757708698		3.685664039		-0.161491513
F		-3.016791016		3.176378298		-2.316087061
F		-1.377265194		-1.674994981		-1.720699916
F		-2.526424932		1.449670724		0.052923327
F		-3.248018624		-1.303056036		0.601770282
F		0.622037606		-0.515986518		-3.64200481
F		-0.335001369		1.895349692		-2.350118938
F		-2.454593909		0.474434777		-2.304513152
F		-0.302979821		0.15872732		-0.400928812
