12
-186.35103317
Al		-1.700229225		2.559441387		-1.230618234
Al		-0.527345939		0.000276599		-2.343369465
Al		-2.205466716		-0.33908203		-0.518934917
F		-0.760608987		3.685047983		-0.158246383
F		-3.012442399		3.177283734		-2.320807252
F		-1.377094107		-1.674952393		-1.720941017
F		-2.531045478		1.449771671		0.049476618
F		-3.255743411		-1.302777681		0.595135521
F		0.629380424		-0.516335727		-3.635024515
F		-0.331089867		1.895095277		-2.345856106
F		-2.451462305		0.47509235		-2.307956354
F		-0.30658613		0.15797279		-0.396985264
