12
-186.35103317
Al		-1.700211357		2.559444861		-1.23063567
Al		-0.527171442		0.000266964		-2.343192948
Al		-2.205661226		-0.339076296		-0.519091833
F		-0.760747096		3.685018647		-0.158091853
F		-3.012235322		3.17732685		-2.321032023
F		-1.37708596		-1.674950365		-1.720952498
F		-2.531265504		1.449776478		0.049312489
F		-3.256111258		-1.302764426		0.59481958
F		0.629730082		-0.516352356		-3.63469212
F		-0.330903605		1.895083162		-2.345653114
F		-2.451313181		0.475123663		-2.308120316
F		-0.306757859		0.15793686		-0.396797476
