12
-186.35103317
Al		-1.700157753		2.559455283		-1.230687978
Al		-0.526647951		0.000238059		-2.342663397
Al		-2.206244756		-0.339059094		-0.519562581
F		-0.761161423		3.684930639		-0.157628263
F		-3.011614091		3.177456198		-2.321706336
F		-1.377061519		-1.674944281		-1.720986941
F		-2.531925582		1.449790899		0.048820102
F		-3.257214799		-1.302724661		0.593871757
F		0.630779056		-0.516402243		-3.633694935
F		-0.330344819		1.895046817		-2.345044138
F		-2.450865809		0.475217602		-2.308612202
F		-0.307273046		0.15782907		-0.396234112
