12
-186.35103317
Al		-1.700086281		2.559469179		-1.230757722
Al		-0.525949963		0.000199519		-2.341957329
Al		-2.207022796		-0.339036158		-0.520190245
F		-0.761713859		3.684813295		-0.157010143
F		-3.010785783		3.177628662		-2.32260542
F		-1.377028931		-1.674936169		-1.721032865
F		-2.532805686		1.449810127		0.048163586
F		-3.258686187		-1.302671641		0.592607993
F		0.632177688		-0.516468759		-3.632365355
F		-0.329599771		1.894998357		-2.34423217
F		-2.450269313		0.475342854		-2.30926805
F		-0.307959962		0.15768535		-0.39548296
