12
-186.35103317
Al		-1.700068413		2.559472653		-1.230775158
Al		-0.525775466		0.000189884		-2.341780812
Al		-2.207217306		-0.339030424		-0.520347161
F		-0.761851968		3.684783959		-0.156855613
F		-3.010578706		3.177671778		-2.322830191
F		-1.377020784		-1.674934141		-1.721044346
F		-2.533025712		1.449814934		0.047999457
F		-3.259054034		-1.302658386		0.592292052
F		0.632527346		-0.516485388		-3.63203296
F		-0.329413509		1.894986242		-2.344029178
F		-2.450120189		0.475374167		-2.309432012
F		-0.308131691		0.15764942		-0.395295172
