12
-186.35103317
Al		-1.700050545		2.559476127		-1.230792594
Al		-0.525600969		0.000180249		-2.341604295
Al		-2.207411816		-0.33902469		-0.520504077
F		-0.761990077		3.684754623		-0.156701083
F		-3.010371629		3.177714894		-2.323054962
F		-1.377012637		-1.674932113		-1.721055827
F		-2.533245738		1.449819741		0.047835328
F		-3.259421881		-1.302645131		0.591976111
F		0.632877004		-0.516502017		-3.631700565
F		-0.329227247		1.894974127		-2.343826186
F		-2.449971065		0.47540548		-2.309595974
F		-0.30830342		0.15761349		-0.395107384
