12
-186.35103317
Al		-1.700032677		2.559479601		-1.23081003
Al		-0.525426472		0.000170614		-2.341427778
Al		-2.207606326		-0.339018956		-0.520660993
F		-0.762128186		3.684725287		-0.156546553
F		-3.010164552		3.17775801		-2.323279733
F		-1.37700449		-1.674930085		-1.721067308
F		-2.533465764		1.449824548		0.047671199
F		-3.259789728		-1.302631876		0.59166017
F		0.633226662		-0.516518646		-3.63136817
F		-0.329040985		1.894962012		-2.343623194
F		-2.449821941		0.475436793		-2.309759936
F		-0.308475149		0.15757756		-0.394919596
