12
-186.35103317
Al		-1.699979073		2.559490023		-1.230862338
Al		-0.524902981		0.000141709		-2.340898227
Al		-2.208189856		-0.339001754		-0.521131741
F		-0.762542513		3.684637279		-0.156082963
F		-3.009543321		3.177887358		-2.323954046
F		-1.376980049		-1.674924001		-1.721101751
F		-2.534125842		1.449838969		0.047178812
F		-3.260893269		-1.302592111		0.590712347
F		0.634275636		-0.516568533		-3.630370985
F		-0.328482199		1.894925667		-2.343014218
F		-2.449374569		0.475530732		-2.310251822
F		-0.308990336		0.15746977		-0.394356232
