12
-186.35103317
Al		-1.700568717		2.559375381		-1.23028695
Al		-0.530661382		0.000459664		-2.346723288
Al		-2.201771026		-0.339190976		-0.515953513
F		-0.757984916		3.685605367		-0.161182453
F		-3.016376862		3.17646453		-2.316536603
F		-1.3772489		-1.674990925		-1.720722878
F		-2.526864984		1.449680338		0.052595069
F		-3.248754318		-1.303029526		0.6011384
F		0.622736922		-0.516019776		-3.64134002
F		-0.334628845		1.895325462		-2.349712954
F		-2.454295661		0.474497403		-2.304841076
F		-0.303323279		0.15865546		-0.400553236
