12
-186.35103317
Al		-1.699728921		2.559538659		-1.231106442
Al		-0.522460023		6.819e-06		-2.338426989
Al		-2.210912996		-0.338921478		-0.523328565
F		-0.764476039		3.684226575		-0.153919543
F		-3.006644243		3.178490982		-2.32710084
F		-1.376865991		-1.674895609		-1.721262485
F		-2.537206206		1.449906267		0.044881006
F		-3.266043127		-1.302406541		0.586289173
F		0.639170848		-0.516801339		-3.625717455
F		-0.325874531		1.894756057		-2.34017233
F		-2.447286833		0.475969114		-2.31254729
F		-0.311394542		0.15696675		-0.3917272
