12
-186.35103317
Al		-1.699711053		2.559542133		-1.231123878
Al		-0.522285526		-2.816e-06		-2.338250472
Al		-2.211107506		-0.338915744		-0.523485481
F		-0.764614148		3.684197239		-0.153765013
F		-3.006437166		3.178534098		-2.327325611
F		-1.376857844		-1.674893581		-1.721273966
F		-2.537426232		1.449911074		0.044716877
F		-3.266410974		-1.302393286		0.585973232
F		0.639520506		-0.516817968		-3.62538506
F		-0.325688269		1.894743942		-2.339969338
F		-2.447137709		0.476000427		-2.312711252
F		-0.311566271		0.15693082		-0.391539412
