12
-186.35103317
Al		-1.699693185		2.559545607		-1.231141314
Al		-0.522111029		-1.2451e-05		-2.338073955
Al		-2.211302016		-0.33891001		-0.523642397
F		-0.764752257		3.684167903		-0.153610483
F		-3.006230089		3.178577214		-2.327550382
F		-1.376849697		-1.674891553		-1.721285447
F		-2.537646258		1.449915881		0.044552748
F		-3.266778821		-1.302380031		0.585657291
F		0.639870164		-0.516834597		-3.625052665
F		-0.325502007		1.894731827		-2.339766346
F		-2.446988585		0.47603174		-2.312875214
F		-0.311738		0.15689489		-0.391351624
