12
-186.35103317
Al		-1.699657449		2.559552555		-1.231176186
Al		-0.521762035		-3.1721e-05		-2.337720921
Al		-2.211691036		-0.338898542		-0.523956229
F		-0.765028475		3.684109231		-0.153301423
F		-3.005815935		3.178663446		-2.327999924
F		-1.376833403		-1.674887497		-1.721308409
F		-2.53808631		1.449925495		0.04422449
F		-3.267514515		-1.302353521		0.585025409
F		0.64056948		-0.516867855		-3.624387875
F		-0.325129483		1.894707597		-2.339360362
F		-2.446690337		0.476094366		-2.313203138
F		-0.312081458		0.15682303		-0.390976048
