12
-186.35103317
Al		-1.699568109		2.559569925		-1.231263366
Al		-0.52088955		-7.9896e-05		-2.336838336
Al		-2.212663586		-0.338869872		-0.524740809
F		-0.76571902		3.683962551		-0.152528773
F		-3.00478055		3.178879026		-2.329123779
F		-1.376792668		-1.674877357		-1.721365814
F		-2.53918644		1.44994953		0.043403845
F		-3.26935375		-1.302287246		0.583445704
F		0.64231777		-0.516951		-3.6227259
F		-0.324198173		1.894647022		-2.338345402
F		-2.445944717		0.476250931		-2.314022948
F		-0.312940103		0.15664338		-0.390037108
