12
-186.35103317
Al		-1.699425165		2.559597717		-1.231402854
Al		-0.519493574		-0.000156976		-2.3354262
Al		-2.214219666		-0.338824		-0.525996137
F		-0.766823892		3.683727863		-0.151292533
F		-3.003123934		3.179223954		-2.330921947
F		-1.376727492		-1.674861133		-1.721457662
F		-2.540946648		1.449987986		0.042090813
F		-3.272296526		-1.302181206		0.580918176
F		0.645115034		-0.517084032		-3.62006674
F		-0.322708077		1.894550102		-2.336721466
F		-2.444751725		0.476501435		-2.315334644
F		-0.314313935		0.15635594		-0.388534804
