12
-186.35103317
Al		-1.699371561		2.559608139		-1.231455162
Al		-0.518970083		-0.000185881		-2.334896649
Al		-2.214803196		-0.338806798		-0.526466885
F		-0.767238219		3.683639855		-0.150828943
F		-3.002502703		3.179353302		-2.33159626
F		-1.376703051		-1.674855049		-1.721492105
F		-2.541606726		1.450002407		0.041598426
F		-3.273400067		-1.302141441		0.579970353
F		0.646164008		-0.517133919		-3.619069555
F		-0.322149291		1.894513757		-2.33611249
F		-2.444304353		0.476595374		-2.31582653
F		-0.314829122		0.15624815		-0.38797144
