12
-186.35103317
Al		-1.699210749		2.559639405		-1.231612086
Al		-0.51739961		-0.000272596		-2.333307996
Al		-2.216553786		-0.338755192		-0.527879129
F		-0.7684812		3.683375831		-0.149438173
F		-3.00063901		3.179741346		-2.333619199
F		-1.376629728		-1.674836797		-1.721595434
F		-2.54358696		1.45004567		0.040121265
F		-3.27671069		-1.302022146		0.577126884
F		0.64931093		-0.51728358		-3.616078
F		-0.320472933		1.894404722		-2.334285562
F		-2.442962237		0.476877191		-2.317302188
F		-0.316374683		0.15592478		-0.386281348
