12
-186.35103317
Al		-1.699067805		2.559667197		-1.231751574
Al		-0.516003634		-0.000349676		-2.33189586
Al		-2.218109866		-0.33870932		-0.529134457
F		-0.769586072		3.683141143		-0.148201933
F		-2.998982394		3.180086274		-2.335417367
F		-1.376564552		-1.674820573		-1.721687282
F		-2.545347168		1.450084126		0.038808233
F		-3.279653466		-1.301916106		0.574599356
F		0.652108194		-0.517416612		-3.61341884
F		-0.318982837		1.894307802		-2.332661626
F		-2.441769245		0.477127695		-2.318613884
F		-0.317748515		0.15563734		-0.384779044
