12
-186.35103317
Al		-1.699032069		2.559674145		-1.231786446
Al		-0.51565464		-0.000368946		-2.331542826
Al		-2.218498886		-0.338697852		-0.529448289
F		-0.76986229		3.683082471		-0.147892873
F		-2.99856824		3.180172506		-2.335866909
F		-1.376548258		-1.674816517		-1.721710244
F		-2.54578722		1.45009374		0.038479975
F		-3.28038916		-1.301889596		0.573967474
F		0.65280751		-0.51744987		-3.61275405
F		-0.318610313		1.894283572		-2.332255642
F		-2.441470997		0.477190321		-2.318941808
F		-0.318091973		0.15556548		-0.384403468
