12
-186.35103317
Al		-1.698996333		2.559681093		-1.231821318
Al		-0.515305646		-0.000388216		-2.331189792
Al		-2.218887906		-0.338686384		-0.529762121
F		-0.770138508		3.683023799		-0.147583813
F		-2.998154086		3.180258738		-2.336316451
F		-1.376531964		-1.674812461		-1.721733206
F		-2.546227272		1.450103354		0.038151717
F		-3.281124854		-1.301863086		0.573335592
F		0.653506826		-0.517483128		-3.61208926
F		-0.318237789		1.894259342		-2.331849658
F		-2.441172749		0.477252947		-2.319269732
F		-0.318435431		0.15549362		-0.384027892
