12
-186.35103317
Al		-1.698924861		2.559694989		-1.231891062
Al		-0.514607658		-0.000426756		-2.330483724
Al		-2.219665946		-0.338663448		-0.530389785
F		-0.770690944		3.682906455		-0.146965693
F		-2.997325778		3.180431202		-2.337215535
F		-1.376499376		-1.674804349		-1.72177913
F		-2.547107376		1.450122582		0.037495201
F		-3.282596242		-1.301810066		0.572071828
F		0.654905458		-0.517549644		-3.61075968
F		-0.317492741		1.894210882		-2.33103769
F		-2.440576253		0.477378199		-2.31992558
F		-0.319122347		0.1553499		-0.38327674
