12
-186.35103317
Al		-1.698889125		2.559701937		-1.231925934
Al		-0.514258664		-0.000446026		-2.33013069
Al		-2.220054966		-0.33865198		-0.530703617
F		-0.770967162		3.682847783		-0.146656633
F		-2.996911624		3.180517434		-2.337665077
F		-1.376483082		-1.674800293		-1.721802092
F		-2.547547428		1.450132196		0.037166943
F		-3.283331936		-1.301783556		0.571439946
F		0.655604774		-0.517582902		-3.61009489
F		-0.317120217		1.894186652		-2.330631706
F		-2.440278005		0.477440825		-2.320253504
F		-0.319465805		0.15527804		-0.382901164
