12
-186.35103317
Al		-1.698871257		2.559705411		-1.23194337
Al		-0.514084167		-0.000455661		-2.329954173
Al		-2.220249476		-0.338646246		-0.530860533
F		-0.771105271		3.682818447		-0.146502103
F		-2.996704547		3.18056055		-2.337889848
F		-1.376474935		-1.674798265		-1.721813573
F		-2.547767454		1.450137003		0.037002814
F		-3.283699783		-1.301770301		0.571124005
F		0.655954432		-0.517599531		-3.609762495
F		-0.316933955		1.894174537		-2.330428714
F		-2.440128881		0.477472138		-2.320417466
F		-0.319637534		0.15524211		-0.382713376
