12
-186.35103317
Al		-1.700658057		2.559358011		-1.23019977
Al		-0.531533867		0.000507839		-2.347605873
Al		-2.200798476		-0.339219646		-0.515168933
F		-0.757294371		3.685752047		-0.161955103
F		-3.017412247		3.17624895		-2.315412748
F		-1.377289635		-1.675001065		-1.720665473
F		-2.525764854		1.449656303		0.053415714
F		-3.246915083		-1.303095801		0.602718105
F		0.620988632		-0.515936631		-3.643001995
F		-0.335560155		1.895386037		-2.350727914
F		-2.455041281		0.474340838		-2.304021266
F		-0.302464634		0.15883511		-0.401492176
