12
-186.35103317
Al		-1.700818869		2.559326745		-1.230042846
Al		-0.53310434		0.000594554		-2.349194526
Al		-2.199047886		-0.339271252		-0.513756689
F		-0.75605139		3.686016071		-0.163345873
F		-3.01927594		3.175860906		-2.313389809
F		-1.377362958		-1.675019317		-1.720562144
F		-2.52378462		1.44961304		0.054892875
F		-3.24360446		-1.303215096		0.605561574
F		0.61784171		-0.51578697		-3.64599355
F		-0.337236513		1.895495072		-2.352554842
F		-2.456383397		0.474059021		-2.302545608
F		-0.300919073		0.15915848		-0.403182268
