12
-186.35103317
Al		-1.700926077		2.559305901		-1.22993823
Al		-0.534151322		0.000652364		-2.350253628
Al		-2.197880826		-0.339305656		-0.512815193
F		-0.755222736		3.686192087		-0.164273053
F		-3.020518402		3.17560221		-2.312041183
F		-1.37741184		-1.675031485		-1.720493258
F		-2.522464464		1.449584198		0.055877649
F		-3.241397378		-1.303294626		0.60745722
F		0.615743762		-0.515687196		-3.64798792
F		-0.338354085		1.895567762		-2.353772794
F		-2.457278141		0.473871143		-2.301561836
F		-0.299888699		0.15937406		-0.404308996
