12
-186.35103317
Al		-1.700943945		2.559302427		-1.229920794
Al		-0.534325819		0.000661999		-2.350430145
Al		-2.197686316		-0.33931139		-0.512658277
F		-0.755084627		3.686221423		-0.164427583
F		-3.020725479		3.175559094		-2.311816412
F		-1.377419987		-1.675033513		-1.720481777
F		-2.522244438		1.449579391		0.056041778
F		-3.241029531		-1.303307881		0.607773161
F		0.615394104		-0.515670567		-3.648320315
F		-0.338540347		1.895579877		-2.353975786
F		-2.457427265		0.47383983		-2.301397874
F		-0.29971697		0.15940999		-0.404496784
