12
-186.35103317
Al		-1.701051153		2.559281583		-1.229816178
Al		-0.535372801		0.000719809		-2.351489247
Al		-2.196519256		-0.339345794		-0.511716781
F		-0.754255973		3.686397439		-0.165354763
F		-3.021967941		3.175300398		-2.310467786
F		-1.377468869		-1.675045681		-1.720412891
F		-2.520924282		1.449550549		0.057026552
F		-3.238822449		-1.303387411		0.609668807
F		0.613296156		-0.515570793		-3.650314685
F		-0.339657919		1.895652567		-2.355193738
F		-2.458322009		0.473651952		-2.300414102
F		-0.298686596		0.15962557		-0.405623512
