12
-186.35103317
Al		-1.701086889		2.559274635		-1.229781306
Al		-0.535721795		0.000739079		-2.351842281
Al		-2.196130236		-0.339357262		-0.511402949
F		-0.753979755		3.686456111		-0.165663823
F		-3.022382095		3.175214166		-2.310018244
F		-1.377485163		-1.675049737		-1.720389929
F		-2.52048423		1.449540935		0.05735481
F		-3.238086755		-1.303413921		0.610300689
F		0.61259684		-0.515537535		-3.650979475
F		-0.340030443		1.895676797		-2.355599722
F		-2.458620257		0.473589326		-2.300086178
F		-0.298343138		0.15969743		-0.405999088
