12
-186.35103317
Al		-1.701158361		2.559260739		-1.229711562
Al		-0.536419783		0.000777619		-2.352548349
Al		-2.195352196		-0.339380198		-0.510775285
F		-0.753427319		3.686573455		-0.166281943
F		-3.023210403		3.175041702		-2.30911916
F		-1.377517751		-1.675057849		-1.720344005
F		-2.519604126		1.449521707		0.058011326
F		-3.236615367		-1.303466941		0.611564453
F		0.611198208		-0.515471019		-3.652309055
F		-0.340775491		1.895725257		-2.35641169
F		-2.459216753		0.473464074		-2.29943033
F		-0.297656222		0.15984115		-0.40675024
