12
-186.35103317
Al		-1.700693793		2.559351063		-1.230164898
Al		-0.531882861		0.000527109		-2.347958907
Al		-2.200409456		-0.339231114		-0.514855101
F		-0.757018153		3.685810719		-0.162264163
F		-3.017826401		3.176162718		-2.314963206
F		-1.377305929		-1.675005121		-1.720642511
F		-2.525324802		1.449646689		0.053743972
F		-3.246179389		-1.303122311		0.603349987
F		0.620289316		-0.515903373		-3.643666785
F		-0.335932679		1.895410267		-2.351133898
F		-2.455339529		0.474278212		-2.303693342
F		-0.302121176		0.15890697		-0.401867752
