12
-186.35103317
Al		-1.701211965		2.559250317		-1.229659254
Al		-0.536943274		0.000806524		-2.3530779
Al		-2.194768666		-0.3393974		-0.510304537
F		-0.753012992		3.686661463		-0.166745533
F		-3.023831634		3.174912354		-2.308444847
F		-1.377542192		-1.675063933		-1.720309562
F		-2.518944048		1.449507286		0.058503713
F		-3.235511826		-1.303506706		0.612512276
F		0.610149234		-0.515421132		-3.65330624
F		-0.341334277		1.895761602		-2.357020666
F		-2.459664125		0.473370135		-2.298938444
F		-0.297141035		0.15994894		-0.407313604
