12
-186.35103317
Al		-1.701265569		2.559239895		-1.229606946
Al		-0.537466765		0.000835429		-2.353607451
Al		-2.194185136		-0.339414602		-0.509833789
F		-0.752598665		3.686749471		-0.167209123
F		-3.024452865		3.174783006		-2.307770534
F		-1.377566633		-1.675070017		-1.720275119
F		-2.51828397		1.449492865		0.0589961
F		-3.234408285		-1.303546471		0.613460099
F		0.60910026		-0.515371245		-3.654303425
F		-0.341893063		1.895797947		-2.357629642
F		-2.460111497		0.473276196		-2.298446558
F		-0.296625848		0.16005673		-0.407876968
