12
-186.35103317
Al		-1.701283437		2.559236421		-1.22958951
Al		-0.537641262		0.000845064		-2.353783968
Al		-2.193990626		-0.339420336		-0.509676873
F		-0.752460556		3.686778807		-0.167363653
F		-3.024659942		3.17473989		-2.307545763
F		-1.37757478		-1.675072045		-1.720263638
F		-2.518063944		1.449488058		0.059160229
F		-3.234040438		-1.303559726		0.61377604
F		0.608750602		-0.515354616		-3.65463582
F		-0.342079325		1.895810062		-2.357832634
F		-2.460260621		0.473244883		-2.298282596
F		-0.296454119		0.16009266		-0.408064756
