12
-186.35103317
Al		-1.701301305		2.559232947		-1.229572074
Al		-0.537815759		0.000854699		-2.353960485
Al		-2.193796116		-0.33942607		-0.509519957
F		-0.752322447		3.686808143		-0.167518183
F		-3.024867019		3.174696774		-2.307320992
F		-1.377582927		-1.675074073		-1.720252157
F		-2.517843918		1.449483251		0.059324358
F		-3.233672591		-1.303572981		0.614091981
F		0.608400944		-0.515337987		-3.654968215
F		-0.342265587		1.895822177		-2.358035626
F		-2.460409745		0.47321357		-2.298118634
F		-0.29628239		0.16012859		-0.408252544
