12
-186.35103317
Al		-1.701337041		2.559225999		-1.229537202
Al		-0.538164753		0.000873969		-2.354313519
Al		-2.193407096		-0.339437538		-0.509206125
F		-0.752046229		3.686866815		-0.167827243
F		-3.025281173		3.174610542		-2.30687145
F		-1.377599221		-1.675078129		-1.720229195
F		-2.517403866		1.449473637		0.059652616
F		-3.232936897		-1.303599491		0.614723863
F		0.607701628		-0.515304729		-3.655633005
F		-0.342638111		1.895846407		-2.35844161
F		-2.460707993		0.473150944		-2.29779071
F		-0.295938932		0.16020045		-0.40862812
