12
-186.35103317
Al		-1.701354909		2.559222525		-1.229519766
Al		-0.53833925		0.000883604		-2.354490036
Al		-2.193212586		-0.339443272		-0.509049209
F		-0.75190812		3.686896151		-0.167981773
F		-3.02548825		3.174567426		-2.306646679
F		-1.377607368		-1.675080157		-1.720217714
F		-2.51718384		1.44946883		0.059816745
F		-3.23256905		-1.303612746		0.615039804
F		0.60735197		-0.5152881		-3.6559654
F		-0.342824373		1.895858522		-2.358644602
F		-2.460857117		0.473119631		-2.297626748
F		-0.295767203		0.16023638		-0.408815908
