12
-186.35103317
Al		-1.701372777		2.559219051		-1.22950233
Al		-0.538513747		0.000893239		-2.354666553
Al		-2.193018076		-0.339449006		-0.508892293
F		-0.751770011		3.686925487		-0.168136303
F		-3.025695327		3.17452431		-2.306421908
F		-1.377615515		-1.675082185		-1.720206233
F		-2.516963814		1.449464023		0.059980874
F		-3.232201203		-1.303626001		0.615355745
F		0.607002312		-0.515271471		-3.656297795
F		-0.343010635		1.895870637		-2.358847594
F		-2.461006241		0.473088318		-2.297462786
F		-0.295595474		0.16027231		-0.409003696
