12
-186.35103317
Al		-1.701515721		2.559191259		-1.229362842
Al		-0.539909723		0.000970319		-2.356078689
Al		-2.191461996		-0.339494878		-0.507636965
F		-0.750665139		3.687160175		-0.169372543
F		-3.027351943		3.174179382		-2.30462374
F		-1.377680691		-1.675098409		-1.720114385
F		-2.515203606		1.449425567		0.061293906
F		-3.229258427		-1.303732041		0.617883273
F		0.604205048		-0.515138439		-3.658956955
F		-0.344500731		1.895967557		-2.36047153
F		-2.462199233		0.472837814		-2.29615109
F		-0.294221642		0.16055975		-0.410506
