12
-186.35103317
Al		-1.700729529		2.559344115		-1.230130026
Al		-0.532231855		0.000546379		-2.348311941
Al		-2.200020436		-0.339242582		-0.514541269
F		-0.756741935		3.685869391		-0.162573223
F		-3.018240555		3.176076486		-2.314513664
F		-1.377322223		-1.675009177		-1.720619549
F		-2.52488475		1.449637075		0.05407223
F		-3.245443695		-1.303148821		0.603981869
F		0.61959		-0.515870115		-3.644331575
F		-0.336305203		1.895434497		-2.351539882
F		-2.455637777		0.474215586		-2.303365418
F		-0.301777718		0.15897883		-0.402243328
