12
-186.35103317
Al		-1.701533589		2.559187785		-1.229345406
Al		-0.54008422		0.000979954		-2.356255206
Al		-2.191267486		-0.339500612		-0.507480049
F		-0.75052703		3.687189511		-0.169527073
F		-3.02755902		3.174136266		-2.304398969
F		-1.377688838		-1.675100437		-1.720102904
F		-2.51498358		1.44942076		0.061458035
F		-3.22889058		-1.303745296		0.618199214
F		0.60385539		-0.51512181		-3.65928935
F		-0.344686993		1.895979672		-2.360674522
F		-2.462348357		0.472806501		-2.295987128
F		-0.294049913		0.16059568		-0.410693788
