12
-186.35103317
Al		-1.701587193		2.559177363		-1.229293098
Al		-0.540607711		0.001008859		-2.356784757
Al		-2.190683956		-0.339517814		-0.507009301
F		-0.750112703		3.687277519		-0.169990663
F		-3.028180251		3.174006918		-2.303724656
F		-1.377713279		-1.675106521		-1.720068461
F		-2.514323502		1.449406339		0.061950422
F		-3.227787039		-1.303785061		0.619147037
F		0.602806416		-0.515071923		-3.660286535
F		-0.345245779		1.896016017		-2.361283498
F		-2.462795729		0.472712562		-2.295495242
F		-0.293534726		0.16070347		-0.411257152
