12
-186.35103317
Al		-1.701658665		2.559163467		-1.229223354
Al		-0.541305699		0.001047399		-2.357490825
Al		-2.189905916		-0.33954075		-0.506381637
F		-0.749560267		3.687394863		-0.170608783
F		-3.029008559		3.173834454		-2.302825572
F		-1.377745867		-1.675114633		-1.720022537
F		-2.513443398		1.449387111		0.062606938
F		-3.226315651		-1.303838081		0.620410801
F		0.601407784		-0.515005407		-3.661616115
F		-0.345990827		1.896064477		-2.362095466
F		-2.463392225		0.47258731		-2.294839394
F		-0.29284781		0.16084719		-0.412008304
