12
-186.35103317
Al		-1.701676533		2.559159993		-1.229205918
Al		-0.541480196		0.001057034		-2.357667342
Al		-2.189711406		-0.339546484		-0.506224721
F		-0.749422158		3.687424199		-0.170763313
F		-3.029215636		3.173791338		-2.302600801
F		-1.377754014		-1.675116661		-1.720011056
F		-2.513223372		1.449382304		0.062771067
F		-3.225947804		-1.303851336		0.620726742
F		0.601058126		-0.514988778		-3.66194851
F		-0.346177089		1.896076592		-2.362298458
F		-2.463541349		0.472555997		-2.294675432
F		-0.292676081		0.16088312		-0.412196092
