12
-186.35103317
Al		-1.701730137		2.559149571		-1.22915361
Al		-0.542003687		0.001085939		-2.358196893
Al		-2.189127876		-0.339563686		-0.505753973
F		-0.749007831		3.687512207		-0.171226903
F		-3.029836867		3.17366199		-2.301926488
F		-1.377778455		-1.675122745		-1.719976613
F		-2.512563294		1.449367883		0.063263454
F		-3.224844263		-1.303891101		0.621674565
F		0.600009152		-0.514938891		-3.662945695
F		-0.346735875		1.896112937		-2.362907434
F		-2.463988721		0.472462058		-2.294183546
F		-0.292160894		0.16099091		-0.412759456
