12
-186.35103317
Al		-1.701748005		2.559146097		-1.229136174
Al		-0.542178184		0.001095574		-2.35837341
Al		-2.188933366		-0.33956942		-0.505597057
F		-0.748869722		3.687541543		-0.171381433
F		-3.030043944		3.173618874		-2.301701717
F		-1.377786602		-1.675124773		-1.719965132
F		-2.512343268		1.449363076		0.063427583
F		-3.224476416		-1.303904356		0.621990506
F		0.599659494		-0.514922262		-3.66327809
F		-0.346922137		1.896125052		-2.363110426
F		-2.464137845		0.472430745		-2.294019584
F		-0.291989165		0.16102684		-0.412947244
