12
-186.35103317
Al		-1.701944553		2.559107883		-1.228944378
Al		-0.544097651		0.001201559		-2.360315097
Al		-2.186793756		-0.339632494		-0.503870981
F		-0.747350523		3.687864239		-0.173081263
F		-3.032321791		3.173144598		-2.299229236
F		-1.377876219		-1.675147081		-1.719838841
F		-2.509922982		1.449310199		0.065233002
F		-3.220430099		-1.304050161		0.625465857
F		0.595813256		-0.514739343		-3.666934435
F		-0.348971019		1.896258317		-2.365343338
F		-2.465778209		0.472086302		-2.292216002
F		-0.290100146		0.16142207		-0.415012912
