12
-186.35103317
Al		-1.702016025		2.559093987		-1.228874634
Al		-0.544795639		0.001240099		-2.361021165
Al		-2.186015716		-0.33965543		-0.503243317
F		-0.746798087		3.687981583		-0.173699383
F		-3.033150099		3.172972134		-2.298330152
F		-1.377908807		-1.675155193		-1.719792917
F		-2.509042878		1.449290971		0.065889518
F		-3.218958711		-1.304103181		0.626729621
F		0.594414624		-0.514672827		-3.668264015
F		-0.349716067		1.896306777		-2.366155306
F		-2.466374705		0.47196105		-2.291560154
F		-0.28941323		0.16156579		-0.415764064
