12
-186.35103317
Al		-1.702033893		2.559090513		-1.228857198
Al		-0.544970136		0.001249734		-2.361197682
Al		-2.185821206		-0.339661164		-0.503086401
F		-0.746659978		3.688010919		-0.173853913
F		-3.033357176		3.172929018		-2.298105381
F		-1.377916954		-1.675157221		-1.719781436
F		-2.508822852		1.449286164		0.066053647
F		-3.218590864		-1.304116436		0.627045562
F		0.594064966		-0.514656198		-3.66859641
F		-0.349902329		1.896318892		-2.366358298
F		-2.466523829		0.471929737		-2.291396192
F		-0.289241501		0.16160172		-0.415951852
