12
-186.35103317
Al		-1.702230441		2.559052299		-1.228665402
Al		-0.546889603		0.001355719		-2.363139369
Al		-2.183681596		-0.339724238		-0.501360325
F		-0.745140779		3.688333615		-0.175553743
F		-3.035635023		3.172454742		-2.2956329
F		-1.378006571		-1.675179529		-1.719655145
F		-2.506402566		1.449233287		0.067859066
F		-3.214544547		-1.304262241		0.630520913
F		0.590218728		-0.514473279		-3.672252755
F		-0.351951211		1.896452157		-2.36859121
F		-2.468164193		0.471585294		-2.28959261
F		-0.287352482		0.16199695		-0.41801752
