12
-186.35103317
Al		-1.700801001		2.559330219		-1.230060282
Al		-0.532929843		0.000584919		-2.349018009
Al		-2.199242396		-0.339265518		-0.513913605
F		-0.756189499		3.685986735		-0.163191343
F		-3.019068863		3.175904022		-2.31361458
F		-1.377354811		-1.675017289		-1.720573625
F		-2.524004646		1.449617847		0.054728746
F		-3.243972307		-1.303201841		0.605245633
F		0.618191368		-0.515803599		-3.645661155
F		-0.337050251		1.895482957		-2.35235185
F		-2.456234273		0.474090334		-2.30270957
F		-0.301090802		0.15912255		-0.40299448
