12
-186.35103317
Al		-1.702266177		2.559045351		-1.22863053
Al		-0.547238597		0.001374989		-2.363492403
Al		-2.183292576		-0.339735706		-0.501046493
F		-0.744864561		3.688392287		-0.175862803
F		-3.036049177		3.17236851		-2.295183358
F		-1.378022865		-1.675183585		-1.719632183
F		-2.505962514		1.449223673		0.068187324
F		-3.213808853		-1.304288751		0.631152795
F		0.589519412		-0.514440021		-3.672917545
F		-0.352323735		1.896476387		-2.368997194
F		-2.468462441		0.471522668		-2.289264686
F		-0.287009024		0.16206881		-0.418393096
