12
-186.35103317
Al		-1.702337649		2.559031455		-1.228560786
Al		-0.547936585		0.001413529		-2.364198471
Al		-2.182514536		-0.339758642		-0.500418829
F		-0.744312125		3.688509631		-0.176480923
F		-3.036877485		3.172196046		-2.294284274
F		-1.378055453		-1.675191697		-1.719586259
F		-2.50508241		1.449204445		0.06884384
F		-3.212337465		-1.304341771		0.632416559
F		0.58812078		-0.514373505		-3.674247125
F		-0.353068783		1.896524847		-2.369809162
F		-2.469058937		0.471397416		-2.288608838
F		-0.286322108		0.16221253		-0.419144248
