12
-186.35103317
Al		-1.702373385		2.559024507		-1.228525914
Al		-0.548285579		0.001432799		-2.364551505
Al		-2.182125516		-0.33977011		-0.500104997
F		-0.744035907		3.688568303		-0.176789983
F		-3.037291639		3.172109814		-2.293834732
F		-1.378071747		-1.675195753		-1.719563297
F		-2.504642358		1.449194831		0.069172098
F		-3.211601771		-1.304368281		0.633048441
F		0.587421464		-0.514340247		-3.674911915
F		-0.353441307		1.896549077		-2.370215146
F		-2.469357185		0.47133479		-2.288280914
F		-0.28597865		0.16228439		-0.419519824
