12
-186.35103317
Al		-1.700263604		2.559078697		-1.229926454
Al		-0.531581515		0.000734847		-2.347776659
Al		-2.201399601		-0.339014801		-0.515470741
F		-0.754262632		3.681332908		-0.159725797
F		-3.01632044		3.179129373		-2.314305144
F		-1.374445765		-1.675153169		-1.71812128
F		-2.529493858		1.449690315		0.051363248
F		-3.246559196		-1.303584102		0.60272079
F		0.621819716		-0.516504118		-3.642085082
F		-0.337608356		1.895662441		-2.353811799
F		-2.455638749		0.472201565		-2.305268079
F		-0.303941293		0.163228781		-0.40167225
