12
-186.35103317
Al		-1.700195134		2.559027281		-1.22987359
Al		-0.531621905		0.000777873		-2.347839805
Al		-2.201473531		-0.338978599		-0.515497085
F		-0.753686296		3.680534762		-0.159348565
F		-3.01615958		3.179645247		-2.314062894
F		-1.373930179		-1.675181193		-1.717656612
F		-2.530131854		1.449695625		0.051019914
F		-3.246427608		-1.303675294		0.602778722
F		0.621907248		-0.516604274		-3.641978806
F		-0.338014622		1.895714899		-2.354409413
F		-2.455774493		0.471806913		-2.305464961
F		-0.304178553		0.164034163		-0.401739134
