12
-186.35103317
Al		-1.700058194		2.558924449		-1.229767862
Al		-0.531702685		0.000863925		-2.347966097
Al		-2.201621391		-0.338906195		-0.515549773
F		-0.752533624		3.67893847		-0.158594101
F		-3.01583786		3.180676995		-2.313578394
F		-1.372899007		-1.675237241		-1.716727276
F		-2.531407846		1.449706245		0.050333246
F		-3.246164432		-1.303857678		0.602894586
F		0.622082312		-0.516804586		-3.641766254
F		-0.338827154		1.895819815		-2.355604641
F		-2.456045981		0.471017609		-2.305858725
F		-0.304653073		0.165644927		-0.401872902
