12
-186.35103317
Al		-1.700571719		2.559310069		-1.230164342
Al		-0.53139976		0.00054123		-2.347492502
Al		-2.201066916		-0.33917771		-0.515352193
F		-0.756856144		3.684924565		-0.161423341
F		-3.01704431		3.17680794		-2.315395269
F		-1.376765902		-1.675027061		-1.720212286
F		-2.526622876		1.44966642		0.052908251
F		-3.247151342		-1.303173738		0.602460096
F		0.621425822		-0.516053416		-3.642563324
F		-0.335780159		1.89542638		-2.351122536
F		-2.455027901		0.473977499		-2.30438211
F		-0.302873623		0.159604562		-0.401371272
