12
-186.35103317
Al		-1.699921254		2.558821617		-1.229662134
Al		-0.531783465		0.000949977		-2.348092389
Al		-2.201769251		-0.338833791		-0.515602461
F		-0.751380952		3.677342178		-0.157839637
F		-3.01551614		3.181708743		-2.313093894
F		-1.371867835		-1.675293289		-1.71579794
F		-2.532683838		1.449716865		0.049646578
F		-3.245901256		-1.304040062		0.60301045
F		0.622257376		-0.517004898		-3.641553702
F		-0.339639686		1.895924731		-2.356799869
F		-2.456317469		0.470228305		-2.306252489
F		-0.305127593		0.167255691		-0.40200667
