12
-186.35103317
Al		-1.699852784		2.558770201		-1.22960927
Al		-0.531823855		0.000993003		-2.348155535
Al		-2.201843181		-0.338797589		-0.515628805
F		-0.750804616		3.676544032		-0.157462405
F		-3.01535528		3.182224617		-2.312851644
F		-1.371352249		-1.675321313		-1.715333272
F		-2.533321834		1.449722175		0.049303244
F		-3.245769668		-1.304131254		0.603068382
F		0.622344908		-0.517105054		-3.641447426
F		-0.340045952		1.895977189		-2.357397483
F		-2.456453213		0.469833653		-2.306449371
F		-0.305364853		0.168061073		-0.402073554
