12
-186.35103317
Al		-1.699681609		2.558641661		-1.22947711
Al		-0.53192483		0.001100568		-2.3483134
Al		-2.202028006		-0.338707084		-0.515694665
F		-0.749363776		3.674548667		-0.156519325
F		-3.01495313		3.183514302		-2.312246019
F		-1.370063284		-1.675391373		-1.714171602
F		-2.534916824		1.44973545		0.048444909
F		-3.245440698		-1.304359234		0.603213212
F		0.622563738		-0.517355444		-3.641181736
F		-0.341061617		1.896108334		-2.358891518
F		-2.456792573		0.468847023		-2.306941576
F		-0.305958003		0.170074528		-0.402240764
