12
-186.35103317
Al		-1.699476199		2.558487413		-1.229318518
Al		-0.532046		0.001229646		-2.348502838
Al		-2.202249796		-0.338598478		-0.515773697
F		-0.747634768		3.672154229		-0.155387629
F		-3.01447055		3.185061924		-2.311519269
F		-1.368516526		-1.675475445		-1.712777598
F		-2.536830812		1.44975138		0.047414907
F		-3.245045934		-1.30463281		0.603387008
F		0.622826334		-0.517655912		-3.640862908
F		-0.342280415		1.896265708		-2.36068436
F		-2.457199805		0.467663067		-2.307532222
F		-0.306669783		0.172490674		-0.402441416
