12
-186.35103317
Al		-1.699441964		2.558461705		-1.229292086
Al		-0.532066195		0.001251159		-2.348534411
Al		-2.202286761		-0.338580377		-0.515786869
F		-0.7473466		3.671755156		-0.155199013
F		-3.01439012		3.185319861		-2.311398144
F		-1.368258733		-1.675489457		-1.712545264
F		-2.53714981		1.449754035		0.04724324
F		-3.24498014		-1.304678406		0.603415974
F		0.6228701		-0.51770599		-3.64080977
F		-0.342483548		1.896291937		-2.360983167
F		-2.457267677		0.467465741		-2.307630663
F		-0.306788413		0.172893365		-0.402474858
