12
-186.35103317
Al		-1.699407729		2.558435997		-1.229265654
Al		-0.53208639		0.001272672		-2.348565984
Al		-2.202323726		-0.338562276		-0.515800041
F		-0.747058432		3.671356083		-0.155010397
F		-3.01430969		3.185577798		-2.311277019
F		-1.36800094		-1.675503469		-1.71231293
F		-2.537468808		1.44975669		0.047071573
F		-3.244914346		-1.304724002		0.60344494
F		0.622913866		-0.517756068		-3.640756632
F		-0.342686681		1.896318166		-2.361281974
F		-2.457335549		0.467268415		-2.307729104
F		-0.306907043		0.173296056		-0.4025083
