12
-186.35103317
Al		-1.700503249		2.559258653		-1.230111478
Al		-0.53144015		0.000584256		-2.347555648
Al		-2.201140846		-0.339141508		-0.515378537
F		-0.756279808		3.684126419		-0.161046109
F		-3.01688345		3.177323814		-2.315153019
F		-1.376250316		-1.675055085		-1.719747618
F		-2.527260872		1.44967173		0.052564917
F		-3.247019754		-1.30326493		0.602518028
F		0.621513354		-0.516153572		-3.642457048
F		-0.336186425		1.895478838		-2.35172015
F		-2.455163645		0.473582847		-2.304578992
F		-0.303110883		0.160409944		-0.401438156
