12
-186.35103317
Al		-1.699270789		2.558333165		-1.229159926
Al		-0.53216717		0.001358724		-2.348692276
Al		-2.202471586		-0.338489872		-0.515852729
F		-0.74590576		3.669759791		-0.154255933
F		-3.01398797		3.186609546		-2.310792519
F		-1.366969768		-1.675559517		-1.711383594
F		-2.5387448		1.44976731		0.046384905
F		-3.24465117		-1.304906386		0.603560804
F		0.62308893		-0.51795638		-3.64054408
F		-0.343499213		1.896423082		-2.362477202
F		-2.457607037		0.466479111		-2.308122868
F		-0.307381563		0.17490682		-0.402642068
