12
-186.35103317
Al		-1.699099614		2.558204625		-1.229027766
Al		-0.532268145		0.001466289		-2.348850141
Al		-2.202656411		-0.338399367		-0.515918589
F		-0.74446492		3.667764426		-0.153312853
F		-3.01358582		3.187899231		-2.310186894
F		-1.365680803		-1.675629577		-1.710221924
F		-2.54033979		1.449780585		0.04552657
F		-3.2443222		-1.305134366		0.603705634
F		0.62330776		-0.51820677		-3.64027839
F		-0.344514878		1.896554227		-2.363971237
F		-2.457946397		0.465492481		-2.308615073
F		-0.307974713		0.176920275		-0.402809278
