12
-186.35103317
Al		-1.698962674		2.558101793		-1.228922038
Al		-0.532348925		0.001552341		-2.348976433
Al		-2.202804271		-0.338326963		-0.515971277
F		-0.743312248		3.666168134		-0.152558389
F		-3.0132641		3.188930979		-2.309702394
F		-1.364649631		-1.675685625		-1.709292588
F		-2.541615782		1.449791205		0.044839902
F		-3.244059024		-1.30531675		0.603821498
F		0.623482824		-0.518407082		-3.640065838
F		-0.34532741		1.896659143		-2.365166465
F		-2.458217885		0.464703177		-2.309008837
F		-0.308449233		0.178531039		-0.402943046
