12
-186.35103317
Al		-1.698928439		2.558076085		-1.228895606
Al		-0.53236912		0.001573854		-2.349008006
Al		-2.202841236		-0.338308862		-0.515984449
F		-0.74302408		3.665769061		-0.152369773
F		-3.01318367		3.189188916		-2.309581269
F		-1.364391838		-1.675699637		-1.709060254
F		-2.54193478		1.44979386		0.044668235
F		-3.24399323		-1.305362346		0.603850464
F		0.62352659		-0.51845716		-3.6400127
F		-0.345530543		1.896685372		-2.365465272
F		-2.458285757		0.464505851		-2.309107278
F		-0.308567863		0.17893373		-0.402976488
