12
-186.35103317
Al		-1.698894204		2.558050377		-1.228869174
Al		-0.532389315		0.001595367		-2.349039579
Al		-2.202878201		-0.338290761		-0.515997621
F		-0.742735912		3.665369988		-0.152181157
F		-3.01310324		3.189446853		-2.309460144
F		-1.364134045		-1.675713649		-1.70882792
F		-2.542253778		1.449796515		0.044496568
F		-3.243927436		-1.305407942		0.60387943
F		0.623570356		-0.518507238		-3.639959562
F		-0.345733676		1.896711601		-2.365764079
F		-2.458353629		0.464308525		-2.309205719
F		-0.308686493		0.179336421		-0.40300993
