12
-186.35103317
Al		-1.698825734		2.557998961		-1.22881631
Al		-0.532429705		0.001638393		-2.349102725
Al		-2.202952131		-0.338254559		-0.516023965
F		-0.742159576		3.664571842		-0.151803925
F		-3.01294238		3.189962727		-2.309217894
F		-1.363618459		-1.675741673		-1.708363252
F		-2.542891774		1.449801825		0.044153234
F		-3.243795848		-1.305499134		0.603937362
F		0.623657888		-0.518607394		-3.639853286
F		-0.346139942		1.896764059		-2.366361693
F		-2.458489373		0.463913873		-2.309402601
F		-0.308923753		0.180141803		-0.403076814
