12
-186.35103317
Al		-1.698654559		2.557870421		-1.22868415
Al		-0.53253068		0.001745958		-2.34926059
Al		-2.203136956		-0.338164054		-0.516089825
F		-0.740718736		3.662576477		-0.150860845
F		-3.01254023		3.191252412		-2.308612269
F		-1.362329494		-1.675811733		-1.707201582
F		-2.544486764		1.4498151		0.043294899
F		-3.243466878		-1.305727114		0.604082192
F		0.623876718		-0.518857784		-3.639587596
F		-0.347155607		1.896895204		-2.367855728
F		-2.458828733		0.462927243		-2.309894806
F		-0.309516903		0.182155258		-0.403244024
