12
-186.35103317
Al		-1.700434779		2.559207237		-1.230058614
Al		-0.53148054		0.000627282		-2.347618794
Al		-2.201214776		-0.339105306		-0.515404881
F		-0.755703472		3.683328273		-0.160668877
F		-3.01672259		3.177839688		-2.314910769
F		-1.37573473		-1.675083109		-1.71928295
F		-2.527898868		1.44967704		0.052221583
F		-3.246888166		-1.303356122		0.60257596
F		0.621600886		-0.516253728		-3.642350772
F		-0.336592691		1.895531296		-2.352317764
F		-2.455299389		0.473188195		-2.304775874
F		-0.303348143		0.161215326		-0.40150504
