12
-186.35103317
Al		-1.698517619		2.557767589		-1.228578422
Al		-0.53261146		0.00183201		-2.349386882
Al		-2.203284816		-0.33809165		-0.516142513
F		-0.739566064		3.660980185		-0.150106381
F		-3.01221851		3.19228416		-2.308127769
F		-1.361298322		-1.675867781		-1.706272246
F		-2.545762756		1.44982572		0.042608231
F		-3.243203702		-1.305909498		0.604198056
F		0.624051782		-0.519058096		-3.639375044
F		-0.347968139		1.89700012		-2.369050956
F		-2.459100221		0.462137939		-2.31028857
F		-0.309991423		0.183766022		-0.403377792
