12
-186.35103317
Al		-1.698449149		2.557716173		-1.228525558
Al		-0.53265185		0.001875036		-2.349450028
Al		-2.203358746		-0.338055448		-0.516168857
F		-0.738989728		3.660182039		-0.149729149
F		-3.01205765		3.192800034		-2.307885519
F		-1.360782736		-1.675895805		-1.705807578
F		-2.546400752		1.44983103		0.042264897
F		-3.243072114		-1.30600069		0.604255988
F		0.624139314		-0.519158252		-3.639268768
F		-0.348374405		1.897052578		-2.36964857
F		-2.459235965		0.461743287		-2.310485452
F		-0.310228683		0.184571404		-0.403444676
