12
-186.35103317
Al		-1.698312209		2.557613341		-1.22841983
Al		-0.53273263		0.001961088		-2.34957632
Al		-2.203506606		-0.337983044		-0.516221545
F		-0.737837056		3.658585747		-0.148974685
F		-3.01173593		3.193831782		-2.307401019
F		-1.359751564		-1.675951853		-1.704878242
F		-2.547676744		1.44984165		0.041578229
F		-3.242808938		-1.306183074		0.604371852
F		0.624314378		-0.519358564		-3.639056216
F		-0.349186937		1.897157494		-2.370843798
F		-2.459507453		0.460953983		-2.310879216
F		-0.310703203		0.186182168		-0.403578444
