12
-186.35103317
Al		-1.698209504		2.557536217		-1.228340534
Al		-0.532793215		0.002025627		-2.349671039
Al		-2.203617501		-0.337928741		-0.516261061
F		-0.736972552		3.657388528		-0.148408837
F		-3.01149464		3.194605593		-2.307037644
F		-1.358978185		-1.675993889		-1.70418124
F		-2.548633738		1.449849615		0.041063228
F		-3.242611556		-1.306319862		0.60445875
F		0.624445676		-0.519508798		-3.638896802
F		-0.349796336		1.897236181		-2.371740219
F		-2.459711069		0.460362005		-2.311174539
F		-0.311059093		0.187390241		-0.40367877
