12
-186.35103317
Al		-1.698175269		2.557510509		-1.228314102
Al		-0.53281341		0.00204714		-2.349702612
Al		-2.203654466		-0.33791064		-0.516274233
F		-0.736684384		3.656989455		-0.148220221
F		-3.01141421		3.19486353		-2.306916519
F		-1.358720392		-1.676007901		-1.703948906
F		-2.548952736		1.44985227		0.040891561
F		-3.242545762		-1.306365458		0.604487716
F		0.624489442		-0.519558876		-3.638843664
F		-0.349999469		1.89726241		-2.372039026
F		-2.459778941		0.460164679		-2.31127298
F		-0.311177723		0.187792932		-0.403712212
