12
-186.35103317
Al		-1.700366309		2.559155821		-1.23000575
Al		-0.53152093		0.000670308		-2.34768194
Al		-2.201288706		-0.339069104		-0.515431225
F		-0.755127136		3.682530127		-0.160291645
F		-3.01656173		3.178355562		-2.314668519
F		-1.375219144		-1.675111133		-1.718818282
F		-2.528536864		1.44968235		0.051878249
F		-3.246756578		-1.303447314		0.602633892
F		0.621688418		-0.516353884		-3.642244496
F		-0.336998957		1.895583754		-2.352915378
F		-2.455435133		0.472793543		-2.304972756
F		-0.303585403		0.162020708		-0.401571924
