12
-186.35103317
Al		-1.697764449		2.557202013		-1.227996918
Al		-0.53305575		0.002305296		-2.350081488
Al		-2.204098046		-0.337693428		-0.516432297
F		-0.733226368		3.652200579		-0.145956829
F		-3.01044905		3.197958774		-2.305463019
F		-1.355626876		-1.676176045		-1.701160898
F		-2.552780712		1.44988413		0.038831557
F		-3.241756234		-1.30691261		0.604835308
F		0.625014634		-0.520159812		-3.638206008
F		-0.352437065		1.897577158		-2.37562471
F		-2.460593405		0.457796767		-2.312454272
F		-0.312601283		0.192625224		-0.404113516
