12
-186.35103317
Al		-1.697730214		2.557176305		-1.227970486
Al		-0.533075945		0.002326809		-2.350113061
Al		-2.204135011		-0.337675327		-0.516445469
F		-0.7329382		3.651801506		-0.145768213
F		-3.01036862		3.198216711		-2.305341894
F		-1.355369083		-1.676190057		-1.700928564
F		-2.55309971		1.449886785		0.03865989
F		-3.24169044		-1.306958206		0.604864274
F		0.6250584		-0.52020989		-3.63815287
F		-0.352640198		1.897603387		-2.375923517
F		-2.460661277		0.457599441		-2.312552713
F		-0.312719913		0.193027915		-0.404146958
