12
-186.35103317
Al		-1.697695979		2.557150597		-1.227944054
Al		-0.53309614		0.002348322		-2.350144634
Al		-2.204171976		-0.337657226		-0.516458641
F		-0.732650032		3.651402433		-0.145579597
F		-3.01028819		3.198474648		-2.305220769
F		-1.35511129		-1.676204069		-1.70069623
F		-2.553418708		1.44988944		0.038488223
F		-3.241624646		-1.307003802		0.60489324
F		0.625102166		-0.520259968		-3.638099732
F		-0.352843331		1.897629616		-2.376222324
F		-2.460729149		0.457402115		-2.312651154
F		-0.312838543		0.193430606		-0.4041804
