12
-186.35103317
Al		-1.697353629		2.556893517		-1.227679734
Al		-0.53329809		0.002563452		-2.350460364
Al		-2.204541626		-0.337476216		-0.516590361
F		-0.729768352		3.647411703		-0.143693437
F		-3.00948389		3.201054018		-2.304009519
F		-1.35253336		-1.676344189		-1.69837289
F		-2.556608688		1.44991599		0.036771553
F		-3.240966706		-1.307459762		0.6051829
F		0.625539826		-0.520760748		-3.637568352
F		-0.354874661		1.897891906		-2.379210394
F		-2.461407869		0.455428855		-2.313635564
F		-0.314024843		0.197457516		-0.40451482
