12
-186.35103317
Al		-1.697250924		2.556816393		-1.227600438
Al		-0.533358675		0.002627991		-2.350555083
Al		-2.204652521		-0.337421913		-0.516629877
F		-0.728903848		3.646214484		-0.143127589
F		-3.0092426		3.201827829		-2.303646144
F		-1.351759981		-1.676386225		-1.697675888
F		-2.557565682		1.449923955		0.036256552
F		-3.240769324		-1.30759655		0.605269798
F		0.625671124		-0.520910982		-3.637408938
F		-0.35548406		1.897970593		-2.380106815
F		-2.461611485		0.454836877		-2.313930887
F		-0.314380733		0.198665589		-0.404615146
