12
-186.35103317
Al		-1.700640189		2.559361485		-1.230217206
Al		-0.53135937		0.000498204		-2.347429356
Al		-2.200992986		-0.339213912		-0.515325849
F		-0.75743248		3.685722711		-0.161800573
F		-3.01720517		3.176292066		-2.315637519
F		-1.377281488		-1.674999037		-1.720676954
F		-2.52598488		1.44966111		0.053251585
F		-3.24728293		-1.303082546		0.602402164
F		0.62133829		-0.51595326		-3.6426696
F		-0.335373893		1.895373922		-2.350524922
F		-2.454892157		0.474372151		-2.304185228
F		-0.302636363		0.15879918		-0.401304388
