12
-186.35103317
Al		-1.700674424		2.559387193		-1.230243638
Al		-0.531339175		0.000476691		-2.347397783
Al		-2.200956021		-0.339232013		-0.515312677
F		-0.757720648		3.686121784		-0.161989189
F		-3.0172856		3.176034129		-2.315758644
F		-1.377539281		-1.674985025		-1.720909288
F		-2.525665882		1.449658455		0.053423252
F		-3.247348724		-1.30303695		0.602373198
F		0.621294524		-0.515903182		-3.642722738
F		-0.33517076		1.895347693		-2.350226115
F		-2.454824285		0.474569477		-2.304086787
F		-0.302517733		0.158396489		-0.401270946
