12
-186.35103317
Al		-1.701222184		2.559798521		-1.23066655
Al		-0.531016055		0.000132483		-2.346892615
Al		-2.200364581		-0.339521629		-0.515101925
F		-0.762331336		3.692506952		-0.165007045
F		-3.01857248		3.171907137		-2.317696644
F		-1.381663969		-1.674760833		-1.724626632
F		-2.520561914		1.449615975		0.056169924
F		-3.248401428		-1.302307414		0.601909742
F		0.620594268		-0.515101934		-3.643572946
F		-0.331920632		1.894928029		-2.345445203
F		-2.453738333		0.477726693		-2.302511731
F		-0.300619653		0.151953433		-0.400735874
