12
-186.35103317
Al		-1.701256419		2.559824229		-1.230692982
Al		-0.53099586		0.00011097		-2.346861042
Al		-2.200327616		-0.33953973		-0.515088753
F		-0.762619504		3.692906025		-0.165195661
F		-3.01865291		3.1716492		-2.317817769
F		-1.381921762		-1.674746821		-1.724858966
F		-2.520242916		1.44961332		0.056341591
F		-3.248467222		-1.302261818		0.601880776
F		0.620550502		-0.515051856		-3.643626084
F		-0.331717499		1.8949018		-2.345146396
F		-2.453670461		0.477924019		-2.30241329
F		-0.300501023		0.151550742		-0.400702432
