12
-186.35103317
Al		-1.701290654		2.559849937		-1.230719414
Al		-0.530975665		8.9457e-05		-2.346829469
Al		-2.200290651		-0.339557831		-0.515075581
F		-0.762907672		3.693305098		-0.165384277
F		-3.01873334		3.171391263		-2.317938894
F		-1.382179555		-1.674732809		-1.7250913
F		-2.519923918		1.449610665		0.056513258
F		-3.248533016		-1.302216222		0.60185181
F		0.620506736		-0.515001778		-3.643679222
F		-0.331514366		1.894875571		-2.344847589
F		-2.453602589		0.478121345		-2.302314849
F		-0.300382393		0.151148051		-0.40066899
