12
-186.35103317
Al		-1.701324889		2.559875645		-1.230745846
Al		-0.53095547		6.7944e-05		-2.346797896
Al		-2.200253686		-0.339575932		-0.515062409
F		-0.76319584		3.693704171		-0.165572893
F		-3.01881377		3.171133326		-2.318060019
F		-1.382437348		-1.674718797		-1.725323634
F		-2.51960492		1.44960801		0.056684925
F		-3.24859881		-1.302170626		0.601822844
F		0.62046297		-0.5149517		-3.64373236
F		-0.331311233		1.894849342		-2.344548782
F		-2.453534717		0.478318671		-2.302216408
F		-0.300263763		0.15074536		-0.400635548
