12
-186.35103317
Al		-1.701359124		2.559901353		-1.230772278
Al		-0.530935275		4.6431e-05		-2.346766323
Al		-2.200216721		-0.339594033		-0.515049237
F		-0.763484008		3.694103244		-0.165761509
F		-3.0188942		3.170875389		-2.318181144
F		-1.382695141		-1.674704785		-1.725555968
F		-2.519285922		1.449605355		0.056856592
F		-3.248664604		-1.30212503		0.601793878
F		0.620419204		-0.514901622		-3.643785498
F		-0.3311081		1.894823113		-2.344249975
F		-2.453466845		0.478515997		-2.302117967
F		-0.300145133		0.150342669		-0.400602106
