12
-186.35103317
Al		-1.701496064		2.560004185		-1.230878006
Al		-0.530854495		-3.9621e-05		-2.346640031
Al		-2.200068861		-0.339666437		-0.514996549
F		-0.76463668		3.695699536		-0.166515973
F		-3.01921592		3.169843641		-2.318665644
F		-1.383726313		-1.674648737		-1.726485304
F		-2.51800993		1.449594735		0.05754326
F		-3.24892778		-1.301942646		0.601678014
F		0.62024414		-0.51470131		-3.64399805
F		-0.330295568		1.894718197		-2.343054747
F		-2.453195357		0.479305301		-2.301724203
F		-0.299670613		0.148731905		-0.400468338
