12
-186.35103317
Al		-1.701598769		2.560081309		-1.230957302
Al		-0.53079391		-0.00010416		-2.346545312
Al		-2.199957966		-0.33972074		-0.514957033
F		-0.765501184		3.696896755		-0.167081821
F		-3.01945721		3.16906983		-2.319029019
F		-1.384499692		-1.674606701		-1.727182306
F		-2.517052936		1.44958677		0.058058261
F		-3.249125162		-1.301805858		0.601591116
F		0.620112842		-0.514551076		-3.644157464
F		-0.329686169		1.89463951		-2.342158326
F		-2.452991741		0.479897279		-2.30142888
F		-0.299314723		0.147523832		-0.400368012
