12
-186.35103317
Al		-1.701633004		2.560107017		-1.230983734
Al		-0.530773715		-0.000125673		-2.346513739
Al		-2.199921001		-0.339738841		-0.514943861
F		-0.765789352		3.697295828		-0.167270437
F		-3.01953764		3.168811893		-2.319150144
F		-1.384757485		-1.674592689		-1.72741464
F		-2.516733938		1.449584115		0.058229928
F		-3.249190956		-1.301760262		0.60156215
F		0.620069076		-0.514500998		-3.644210602
F		-0.329483036		1.894613281		-2.341859519
F		-2.452923869		0.480094605		-2.301330439
F		-0.299196093		0.147121141		-0.40033457
