12
-186.35103317
Al		-1.701872649		2.560286973		-1.231168758
Al		-0.53063235		-0.000276264		-2.346292728
Al		-2.199662246		-0.339865548		-0.514851657
F		-0.767806528		3.700089339		-0.168590749
F		-3.02010065		3.167006334		-2.319998019
F		-1.386562036		-1.674494605		-1.729040978
F		-2.514500952		1.44956553		0.059431597
F		-3.249651514		-1.30144109		0.601359388
F		0.619762714		-0.514150452		-3.644582568
F		-0.328061105		1.894429678		-2.33976787
F		-2.452448765		0.481475887		-2.300641352
F		-0.298365683		0.144302304		-0.400100476
