12
-186.35103317
Al		-1.701941119		2.560338389		-1.231221622
Al		-0.53059196		-0.00031929		-2.346229582
Al		-2.199588316		-0.33990175		-0.514825313
F		-0.768382864		3.700887485		-0.168967981
F		-3.02026151		3.16649046		-2.320240269
F		-1.387077622		-1.674466581		-1.729505646
F		-2.513862956		1.44956022		0.059774931
F		-3.249783102		-1.301349898		0.601301456
F		0.619675182		-0.514050296		-3.644688844
F		-0.327654839		1.89437722		-2.339170256
F		-2.452313021		0.481870539		-2.30044447
F		-0.298128423		0.143496922		-0.400033592
