12
-186.35103317
Al		-1.701975354		2.560364097		-1.231248054
Al		-0.530571765		-0.000340803		-2.346198009
Al		-2.199551351		-0.339919851		-0.514812141
F		-0.768671032		3.701286558		-0.169156597
F		-3.02034194		3.166232523		-2.320361394
F		-1.387335415		-1.674452569		-1.72973798
F		-2.513543958		1.449557565		0.059946598
F		-3.249848896		-1.301304302		0.60127249
F		0.619631416		-0.514000218		-3.644741982
F		-0.327451706		1.894350991		-2.338871449
F		-2.452245149		0.482067865		-2.300346029
F		-0.298009793		0.143094231		-0.40000015
