12
-186.35103317
Al		-1.702043824		2.560415513		-1.231300918
Al		-0.530531375		-0.000383829		-2.346134863
Al		-2.199477421		-0.339956053		-0.514785797
F		-0.769247368		3.702084704		-0.169533829
F		-3.0205028		3.165716649		-2.320603644
F		-1.387851001		-1.674424545		-1.730202648
F		-2.512905962		1.449552255		0.060289932
F		-3.249980484		-1.30121311		0.601214558
F		0.619543884		-0.513900062		-3.644848258
F		-0.32704544		1.894298533		-2.338273835
F		-2.452109405		0.482462517		-2.300149147
F		-0.297772533		0.142288849		-0.399933266
