12
-186.35103317
Al		-1.702386174		2.560672593		-1.231565238
Al		-0.530329425		-0.000598959		-2.345819133
Al		-2.199107771		-0.340137063		-0.514654077
F		-0.772129048		3.706075434		-0.171419989
F		-3.0213071		3.163137279		-2.321814894
F		-1.390428931		-1.674284425		-1.732525988
F		-2.509715982		1.449525705		0.062006602
F		-3.250638424		-1.30075715		0.600924898
F		0.619106224		-0.513399282		-3.645379638
F		-0.32501411		1.894036243		-2.335285765
F		-2.451430685		0.484435777		-2.299164737
F		-0.296586233		0.138261939		-0.399598846
