12
-186.35103317
Al		-1.702454644		2.560724009		-1.231618102
Al		-0.530289035		-0.000641985		-2.345755987
Al		-2.199033841		-0.340173265		-0.514627733
F		-0.772705384		3.70687358		-0.171797221
F		-3.02146796		3.162621405		-2.322057144
F		-1.390944517		-1.674256401		-1.732990656
F		-2.509077986		1.449520395		0.062349936
F		-3.250770012		-1.300665958		0.600866966
F		0.619018692		-0.513299126		-3.645485914
F		-0.324607844		1.893983785		-2.334688151
F		-2.451294941		0.484830429		-2.298967855
F		-0.296348973		0.137456557		-0.399531962
