12
-186.35103317
Al		-1.702557349		2.560801133		-1.231697398
Al		-0.53022845		-0.000706524		-2.345661268
Al		-2.198922946		-0.340227568		-0.514588217
F		-0.773569888		3.708070799		-0.172363069
F		-3.02170925		3.161847594		-2.322420519
F		-1.391717896		-1.674214365		-1.733687658
F		-2.508120992		1.44951243		0.062864937
F		-3.250967394		-1.30052917		0.600780068
F		0.618887394		-0.513148892		-3.645645328
F		-0.323998445		1.893905098		-2.33379173
F		-2.451091325		0.485422407		-2.298672532
F		-0.295993083		0.136248484		-0.399431636
