12
-186.35103317
Al		-1.700845599		2.559515733		-1.230375798
Al		-0.5312382		0.000369126		-2.347239918
Al		-2.200771196		-0.339322518		-0.515246817
F		-0.759161488		3.688117149		-0.162932269
F		-3.01768775		3.174744444		-2.316364269
F		-1.378828246		-1.674914965		-1.722070958
F		-2.524070892		1.44964518		0.054281587
F		-3.247677694		-1.30280897		0.602228368
F		0.621075694		-0.515652792		-3.642988428
F		-0.334155095		1.895216548		-2.34873208
F		-2.454484925		0.475556107		-2.303594582
F		-0.301924583		0.156383034		-0.401103736
