12
-186.35103317
Al		-1.700879834		2.559541441		-1.23040223
Al		-0.531218005		0.000347613		-2.347208345
Al		-2.200734231		-0.339340619		-0.515233645
F		-0.759449656		3.688516222		-0.163120885
F		-3.01776818		3.174486507		-2.316485394
F		-1.379086039		-1.674900953		-1.722303292
F		-2.523751894		1.449642525		0.054453254
F		-3.247743488		-1.302763374		0.602199402
F		0.621031928		-0.515602714		-3.643041566
F		-0.333951962		1.895190319		-2.348433273
F		-2.454417053		0.475753433		-2.303496141
F		-0.301805953		0.155980343		-0.401070294
