12
-186.35103317
Al		-1.703036639		2.561161045		-1.232067446
Al		-0.52994572		-0.001007706		-2.345219246
Al		-2.198405436		-0.340480982		-0.514403809
F		-0.77760424		3.713657821		-0.175003693
F		-3.02283527		3.158236476		-2.324116269
F		-1.395326998		-1.674018197		-1.736940334
F		-2.50365502		1.44947526		0.065268275
F		-3.25188851		-1.299890826		0.600374544
F		0.61827467		-0.5124478		-3.64638926
F		-0.321154583		1.893537892		-2.329608432
F		-2.450141117		0.488184971		-2.297294358
F		-0.294332263		0.13061081		-0.398963448
