12
-186.35103317
Al		-1.703070874		2.561186753		-1.232093878
Al		-0.529925525		-0.001029219		-2.345187673
Al		-2.198368471		-0.340499083		-0.514390637
F		-0.777892408		3.714056894		-0.175192309
F		-3.0229157		3.157978539		-2.324237394
F		-1.395584791		-1.674004185		-1.737172668
F		-2.503336022		1.449472605		0.065439942
F		-3.251954304		-1.29984523		0.600345578
F		0.618230904		-0.512397722		-3.646442398
F		-0.32095145		1.893511663		-2.329309625
F		-2.450073245		0.488382297		-2.297195917
F		-0.294213633		0.130208119		-0.398930006
