12
-186.35103317
Al		-1.703173579		2.561263877		-1.232173174
Al		-0.52986494		-0.001093758		-2.345092954
Al		-2.198257576		-0.340553386		-0.514351121
F		-0.778756912		3.715254113		-0.175758157
F		-3.02315699		3.157204728		-2.324600769
F		-1.39635817		-1.673962149		-1.73786967
F		-2.502379028		1.44946464		0.065954943
F		-3.252151686		-1.299708442		0.60025868
F		0.618099606		-0.512247488		-3.646601812
F		-0.320342051		1.893432976		-2.328413204
F		-2.449869629		0.488974275		-2.296900594
F		-0.293857743		0.129000046		-0.39882968
