12
-186.35103317
Al		-1.703344754		2.561392417		-1.232305334
Al		-0.529763965		-0.001201323		-2.344935089
Al		-2.198072751		-0.340643891		-0.514285261
F		-0.780197752		3.717249478		-0.176701237
F		-3.02355914		3.155915043		-2.325206394
F		-1.397647135		-1.673892089		-1.73903134
F		-2.500784038		1.449451365		0.066813278
F		-3.252480656		-1.299480462		0.60011385
F		0.617880776		-0.511997098		-3.646867502
F		-0.319326386		1.893301831		-2.326919169
F		-2.449530269		0.489960905		-2.296408389
F		-0.293264593		0.126986591		-0.39866247
