12
-186.35103317
Al		-1.700914069		2.559567149		-1.230428662
Al		-0.53119781		0.0003261		-2.347176772
Al		-2.200697266		-0.33935872		-0.515220473
F		-0.759737824		3.688915295		-0.163309501
F		-3.01784861		3.17422857		-2.316606519
F		-1.379343832		-1.674886941		-1.722535626
F		-2.523432896		1.44963987		0.054624921
F		-3.247809282		-1.302717778		0.602170436
F		0.620988162		-0.515552636		-3.643094704
F		-0.333748829		1.89516409		-2.348134466
F		-2.454349181		0.475950759		-2.3033977
F		-0.301687323		0.155577652		-0.401036852
