12
-186.35103317
Al		-1.703481694		2.561495249		-1.232411062
Al		-0.529683185		-0.001287375		-2.344808797
Al		-2.197924891		-0.340716295		-0.514232573
F		-0.781350424		3.71884577		-0.177455701
F		-3.02388086		3.154883295		-2.325690894
F		-1.398678307		-1.673836041		-1.739960676
F		-2.499508046		1.449440745		0.067499946
F		-3.252743832		-1.299298078		0.599997986
F		0.617705712		-0.511796786		-3.647080054
F		-0.318513854		1.893196915		-2.325723941
F		-2.449258781		0.490750209		-2.296014625
F		-0.292790073		0.125375827		-0.398528702
