12
-186.35103317
Al		-1.703755574		2.561700913		-1.232622518
Al		-0.529521625		-0.001459479		-2.344556213
Al		-2.197629171		-0.340861103		-0.514127197
F		-0.783655768		3.722038354		-0.178964629
F		-3.0245243		3.152819799		-2.326659894
F		-1.400740651		-1.673723945		-1.741819348
F		-2.496956062		1.449419505		0.068873282
F		-3.253270184		-1.29893331		0.599766258
F		0.617355584		-0.511396162		-3.647505158
F		-0.31688879		1.892987083		-2.323333485
F		-2.448715805		0.492328817		-2.295227097
F		-0.291841033		0.122154299		-0.398261166
