12
-186.35103317
Al		-1.703789809		2.561726621		-1.23264895
Al		-0.52950143		-0.001480992		-2.34452464
Al		-2.197592206		-0.340879204		-0.514114025
F		-0.783943936		3.722437427		-0.179153245
F		-3.02460473		3.152561862		-2.326781019
F		-1.400998444		-1.673709933		-1.742051682
F		-2.496637064		1.44941685		0.069044949
F		-3.253335978		-1.298887714		0.599737292
F		0.617311818		-0.511346084		-3.647558296
F		-0.316685657		1.892960854		-2.323034678
F		-2.448647933		0.492526143		-2.295128656
F		-0.291722403		0.121751608		-0.398227724
