12
-186.35103317
Al		-1.703926749		2.561829453		-1.232754678
Al		-0.52942065		-0.001567044		-2.344398348
Al		-2.197444346		-0.340951608		-0.514061337
F		-0.785096608		3.724033719		-0.179907709
F		-3.02492645		3.151530114		-2.327265519
F		-1.402029616		-1.673653885		-1.742981018
F		-2.495361072		1.44940623		0.069731617
F		-3.253599154		-1.29870533		0.599621428
F		0.617136754		-0.511145772		-3.647770848
F		-0.315873125		1.892855938		-2.32183945
F		-2.448376445		0.493315447		-2.294734892
F		-0.291247883		0.120140844		-0.398093956
