12
-186.35103317
Al		-1.703995219		2.561880869		-1.232807542
Al		-0.52938026		-0.00161007		-2.344335202
Al		-2.197370416		-0.34098781		-0.514034993
F		-0.785672944		3.724831865		-0.180284941
F		-3.02508731		3.15101424		-2.327507769
F		-1.402545202		-1.673625861		-1.743445686
F		-2.494723076		1.44940092		0.070074951
F		-3.253730742		-1.298614138		0.599563496
F		0.617049222		-0.511045616		-3.647877124
F		-0.315466859		1.89280348		-2.321241836
F		-2.448240701		0.493710099		-2.29453801
F		-0.291010623		0.119335462		-0.398027072
