12
-187.38518821
Al		1.285169952		0.045985816		2.442494677
Al		1.27469745		1.19167652		-0.08198002
Al		-0.316559305		0.832826664		-2.323590633
F		-1.672096084		-0.368101734		-2.217928267
F		2.063376502		-0.351680094		0.753257483
F		0.048136974		1.822348514		-3.796984814
F		-0.359991666		1.931954671		-0.770838065
F		2.588608833		2.420092459		-0.320742534
F		1.264566383		0.040729878		-1.623668977
F		0.441974091		1.537992113		1.615483562
F		2.54246872		0.597022279		3.625121389
F		0.019016869		-1.198852449		2.814122996
