12
-187.38518821
Al		1.286185108		0.044801856		2.441958053
Al		1.27386283		1.192649928		-0.081538828
Al		-0.315544153		0.831642704		-2.324127257
F		-1.672712196		-0.36738317		-2.217602583
F		2.063457426		-0.35150575		0.752187871
F		0.04755857		1.823023098		-3.796679062
F		-0.360368402		1.931699067		-0.771824853
F		2.588901745		2.419750839		-0.32089737
F		1.265278767		0.040594018		-1.622859617
F		0.442228819		1.537426309		1.616375746
F		2.541890316		0.597696863		3.625427141
F		0.018400753		-1.198133885		2.81444868
