12
-187.38518821
Al		1.28313964		0.048353736		2.443567925
Al		1.27636669		1.189729704		-0.082862404
Al		-0.318589609		0.835194584		-2.322517385
F		-1.67086386		-0.369538862		-2.218579635
F		2.063214654		-0.352028782		0.755396707
F		0.049293782		1.820999346		-3.797596318
F		-0.359238194		1.932465879		-0.768864489
F		2.588023009		2.420775699		-0.320432862
F		1.263141615		0.041001598		-1.625287697
F		0.441464635		1.539123721		1.613699194
F		2.543625528		0.595673111		3.624509885
F		0.020249101		-1.200289577		2.813471628
