12
-187.38518821
Al		1.28821542		0.042433936		2.440884805
Al		1.27219359		1.194596744		-0.080656444
Al		-0.313513849		0.829274784		-2.325200505
F		-1.67394442		-0.365946042		-2.216951215
F		2.063619274		-0.351157062		0.750048647
F		0.046401762		1.824372266		-3.796067558
F		-0.361121874		1.931187859		-0.773798429
F		2.589487569		2.419067599		-0.321207042
F		1.266703535		0.040322298		-1.621240897
F		0.442738275		1.536294701		1.618160114
F		2.540733508		0.599046031		3.626038645
F		0.017168521		-1.196696757		2.815100048
