12
-187.38518821
Al		1.288469209		0.042137946		2.440750649
Al		1.271984935		1.194840096		-0.080546146
Al		-0.313260061		0.828978794		-2.325334661
F		-1.674098448		-0.365766401		-2.216869794
F		2.063639505		-0.351113476		0.749781244
F		0.046257161		1.824540912		-3.79599112
F		-0.361216058		1.931123958		-0.774045126
F		2.589560797		2.418982194		-0.321245751
F		1.266881631		0.040288333		-1.621038557
F		0.442801957		1.53615325		1.61838316
F		2.540588907		0.599214677		3.626115083
F		0.017014492		-1.196517116		2.815181469
