12
-187.38518821
Al		1.288722998		0.041841956		2.440616493
Al		1.27177628		1.195083448		-0.080435848
Al		-0.313006273		0.828682804		-2.325468817
F		-1.674252476		-0.36558676		-2.216788373
F		2.063659736		-0.35106989		0.749513841
F		0.04611256		1.824709558		-3.795914682
F		-0.361310242		1.931060057		-0.774291823
F		2.589634025		2.418896789		-0.32128446
F		1.267059727		0.040254368		-1.620836217
F		0.442865639		1.536011799		1.618606206
F		2.540444306		0.599383323		3.626191521
F		0.016860463		-1.196337475		2.81526289
