12
-187.38518821
Al		1.288976787		0.041545966		2.440482337
Al		1.271567625		1.1953268		-0.08032555
Al		-0.312752485		0.828386814		-2.325602973
F		-1.674406504		-0.365407119		-2.216706952
F		2.063679967		-0.351026304		0.749246438
F		0.045967959		1.824878204		-3.795838244
F		-0.361404426		1.930996156		-0.77453852
F		2.589707253		2.418811384		-0.321323169
F		1.267237823		0.040220403		-1.620633877
F		0.442929321		1.535870348		1.618829252
F		2.540299705		0.599551969		3.626267959
F		0.016706434		-1.196157834		2.815344311
