12
-187.38518821
Al		1.289230576		0.041249976		2.440348181
Al		1.27135897		1.195570152		-0.080215252
Al		-0.312498697		0.828090824		-2.325737129
F		-1.674560532		-0.365227478		-2.216625531
F		2.063700198		-0.350982718		0.748979035
F		0.045823358		1.82504685		-3.795761806
F		-0.36149861		1.930932255		-0.774785217
F		2.589780481		2.418725979		-0.321361878
F		1.267415919		0.040186438		-1.620431537
F		0.442993003		1.535728897		1.619052298
F		2.540155104		0.599720615		3.626344397
F		0.016552405		-1.195978193		2.815425732
