12
-187.38518821
Al		1.289484365		0.040953986		2.440214025
Al		1.271150315		1.195813504		-0.080104954
Al		-0.312244909		0.827794834		-2.325871285
F		-1.67471456		-0.365047837		-2.21654411
F		2.063720429		-0.350939132		0.748711632
F		0.045678757		1.825215496		-3.795685368
F		-0.361592794		1.930868354		-0.775031914
F		2.589853709		2.418640574		-0.321400587
F		1.267594015		0.040152473		-1.620229197
F		0.443056685		1.535587446		1.619275344
F		2.540010503		0.599889261		3.626420835
F		0.016398376		-1.195798552		2.815507153
