12
-187.38518821
Al		1.291007099		0.039178046		2.439409089
Al		1.269898385		1.197273616		-0.079443166
Al		-0.310722181		0.826018894		-2.326676221
F		-1.675638728		-0.363969991		-2.216055584
F		2.063841815		-0.350677616		0.747107214
F		0.044811151		1.826227372		-3.79522674
F		-0.362157898		1.930484948		-0.776512096
F		2.590293077		2.418128144		-0.321632841
F		1.268662591		0.039948683		-1.619015157
F		0.443438777		1.53473874		1.62061362
F		2.539142897		0.600901137		3.626879463
F		0.015474202		-1.194720706		2.815995679
