12
-187.38518821
Al		1.292022255		0.037994086		2.438872465
Al		1.269063765		1.198247024		-0.079001974
Al		-0.309707029		0.824834934		-2.327212845
F		-1.67625484		-0.363251427		-2.2157299
F		2.063922739		-0.350503272		0.746037602
F		0.044232747		1.826901956		-3.794920988
F		-0.362534634		1.930229344		-0.777498884
F		2.590585989		2.417786524		-0.321787677
F		1.269374975		0.039812823		-1.618205797
F		0.443693505		1.534172936		1.621505804
F		2.538564493		0.601575721		3.627185215
F		0.014858086		-1.194002142		2.816321363
