12
-187.38518821
Al		1.292529833		0.037402106		2.438604153
Al		1.268646455		1.198733728		-0.078781378
Al		-0.309199453		0.824242954		-2.327481157
F		-1.676562896		-0.362892145		-2.215567058
F		2.063963201		-0.3504161		0.745502796
F		0.043943545		1.827239248		-3.794768112
F		-0.362723002		1.930101542		-0.777992278
F		2.590732445		2.417615714		-0.321865095
F		1.269731167		0.039744893		-1.617801117
F		0.443820869		1.533890034		1.621951896
F		2.538275291		0.601913013		3.627338091
F		0.014550028		-1.19364286		2.816484205
