12
-187.38518821
Al		1.283647218		0.047761756		2.443299613
Al		1.27594938		1.190216408		-0.082641808
Al		-0.318082033		0.834602604		-2.322785697
F		-1.671171916		-0.36917958		-2.218416793
F		2.063255116		-0.35194161		0.754861901
F		0.04900458		1.821336638		-3.797443442
F		-0.359426562		1.932338077		-0.769357883
F		2.588169465		2.420604889		-0.32051028
F		1.263497807		0.040933668		-1.624883017
F		0.441591999		1.538840819		1.614145286
F		2.543336326		0.596010403		3.624662761
F		0.019941043		-1.199930295		2.81363447
