12
-187.38518821
Al		1.294306356		0.035330176		2.437665061
Al		1.26718587		1.200437192		-0.078009292
Al		-0.307422937		0.822171024		-2.328420249
F		-1.677641092		-0.361634658		-2.214997111
F		2.064104818		-0.350110998		0.743630975
F		0.042931338		1.82841977		-3.794233046
F		-0.36338229		1.929654235		-0.779719157
F		2.591245041		2.417017879		-0.322136058
F		1.270977839		0.039507138		-1.616384737
F		0.444266643		1.532899877		1.623513218
F		2.537263084		0.603093535		3.627873157
F		0.013471825		-1.192385373		2.817054152
