12
-187.38518821
Al		1.294813934		0.034738196		2.437396749
Al		1.26676856		1.200923896		-0.077788696
Al		-0.306915361		0.821579044		-2.328688561
F		-1.677949148		-0.361275376		-2.214834269
F		2.06414528		-0.350023826		0.743096169
F		0.042642136		1.828757062		-3.79408017
F		-0.363570658		1.929526433		-0.780212551
F		2.591391497		2.416847069		-0.322213476
F		1.271334031		0.039439208		-1.615980057
F		0.444394007		1.532616975		1.62395931
F		2.536973882		0.603430827		3.628026033
F		0.013163767		-1.192026091		2.817216994
