12
-187.38518821
Al		1.296590457		0.032666266		2.436457657
Al		1.265307975		1.20262736		-0.07701661
Al		-0.305138845		0.819507114		-2.329627653
F		-1.679027344		-0.360017889		-2.214264322
F		2.064286897		-0.349718724		0.741224348
F		0.041629929		1.829937584		-3.793545104
F		-0.364229946		1.929079126		-0.78193943
F		2.591904093		2.416249234		-0.322484439
F		1.272580703		0.039201453		-1.614563677
F		0.444839781		1.531626818		1.625520632
F		2.535961675		0.604611349		3.628561099
F		0.012085564		-1.190768604		2.817786941
