12
-187.38518821
Al		1.284154796		0.047169776		2.443031301
Al		1.27553207		1.190703112		-0.082421212
Al		-0.317574457		0.834010624		-2.323054009
F		-1.671479972		-0.368820298		-2.218253951
F		2.063295578		-0.351854438		0.754327095
F		0.048715378		1.82167393		-3.797290566
F		-0.35961493		1.932210275		-0.769851277
F		2.588315921		2.420434079		-0.320587698
F		1.263853999		0.040865738		-1.624478337
F		0.441719363		1.538557917		1.614591378
F		2.543047124		0.596347695		3.624815637
F		0.019632985		-1.199571013		2.813797312
