12
-187.38518821
Al		1.298113191		0.030890326		2.435652721
Al		1.264056045		1.204087472		-0.076354822
Al		-0.303616117		0.817731174		-2.330432589
F		-1.679951512		-0.358940043		-2.213775796
F		2.064408283		-0.349457208		0.73961993
F		0.040762323		1.83094946		-3.793086476
F		-0.36479505		1.92869572		-0.783419612
F		2.592343461		2.415736804		-0.322716693
F		1.273649279		0.038997663		-1.613349637
F		0.445221873		1.530778112		1.626858908
F		2.535094069		0.605623225		3.629019727
F		0.01116139		-1.189690758		2.818275467
