12
-187.38518821
Al		1.29836698		0.030594336		2.435518565
Al		1.26384739		1.204330824		-0.076244524
Al		-0.303362329		0.817435184		-2.330566745
F		-1.68010554		-0.358760402		-2.213694375
F		2.064428514		-0.349413622		0.739352527
F		0.040617722		1.831118106		-3.793010038
F		-0.364889234		1.928631819		-0.783666309
F		2.592416689		2.415651399		-0.322755402
F		1.273827375		0.038963698		-1.613147297
F		0.445285555		1.530636661		1.627081954
F		2.534949468		0.605791871		3.629096165
F		0.011007361		-1.189511117		2.818356888
