12
-187.38518821
Al		1.298874558		0.030002356		2.435250253
Al		1.26343008		1.204817528		-0.076023928
Al		-0.302854753		0.816843204		-2.330835057
F		-1.680413596		-0.35840112		-2.213531533
F		2.064468976		-0.34932645		0.738817721
F		0.04032852		1.831455398		-3.792857162
F		-0.365077602		1.928504017		-0.784159703
F		2.592563145		2.415480589		-0.32283282
F		1.274183567		0.038895768		-1.612742617
F		0.445412919		1.530353759		1.627528046
F		2.534660266		0.606129163		3.629249041
F		0.010699303		-1.189151835		2.81851973
