12
-187.38518821
Al		1.299128347		0.029706366		2.435116097
Al		1.263221425		1.20506088		-0.07591363
Al		-0.302600965		0.816547214		-2.330969213
F		-1.680567624		-0.358221479		-2.213450112
F		2.064489207		-0.349282864		0.738550318
F		0.040183919		1.831624044		-3.792780724
F		-0.365171786		1.928440116		-0.7844064
F		2.592636373		2.415395184		-0.322871529
F		1.274361663		0.038861803		-1.612540277
F		0.445476601		1.530212308		1.627751092
F		2.534515665		0.606297809		3.629325479
F		0.010545274		-1.188972194		2.818601151
