12
-187.38518821
Al		1.299635925		0.029114386		2.434847785
Al		1.262804115		1.205547584		-0.075693034
Al		-0.302093389		0.815955234		-2.331237525
F		-1.68087568		-0.357862197		-2.21328727
F		2.064529669		-0.349195692		0.738015512
F		0.039894717		1.831961336		-3.792627848
F		-0.365360154		1.928312314		-0.784899794
F		2.592782829		2.415224374		-0.322948947
F		1.274717855		0.038793873		-1.612135597
F		0.445603965		1.529929406		1.628197184
F		2.534226463		0.606635101		3.629478355
F		0.010237216		-1.188612912		2.818763993
