12
-187.38518821
Al		1.299889714		0.028818396		2.434713629
Al		1.26259546		1.205790936		-0.075582736
Al		-0.301839601		0.815659244		-2.331371681
F		-1.681029708		-0.357682556		-2.213205849
F		2.0645499		-0.349152106		0.737748109
F		0.039750116		1.832129982		-3.79255141
F		-0.365454338		1.928248413		-0.785146491
F		2.592856057		2.415138969		-0.322987656
F		1.274895951		0.038759908		-1.611933257
F		0.445667647		1.529787955		1.62842023
F		2.534081862		0.606803747		3.629554793
F		0.010083187		-1.188433271		2.818845414
