12
-187.38518821
Al		1.300143503		0.028522406		2.434579473
Al		1.262386805		1.206034288		-0.075472438
Al		-0.301585813		0.815363254		-2.331505837
F		-1.681183736		-0.357502915		-2.213124428
F		2.064570131		-0.34910852		0.737480706
F		0.039605515		1.832298628		-3.792474972
F		-0.365548522		1.928184512		-0.785393188
F		2.592929285		2.415053564		-0.323026365
F		1.275074047		0.038725943		-1.611730917
F		0.445731329		1.529646504		1.628643276
F		2.533937261		0.606972393		3.629631231
F		0.009929158		-1.18825363		2.818926835
