12
-187.38518821
Al		1.301158659		0.027338446		2.434042849
Al		1.261552185		1.207007696		-0.075031246
Al		-0.300570661		0.814179294		-2.332042461
F		-1.681799848		-0.356784351		-2.212798744
F		2.064651055		-0.348934176		0.736411094
F		0.039027111		1.832973212		-3.79216922
F		-0.365925258		1.927928908		-0.786379976
F		2.593222197		2.414711944		-0.323181201
F		1.275786431		0.038590083		-1.610921557
F		0.445986057		1.5290807		1.62953546
F		2.533358857		0.607646977		3.629936983
F		0.009313042		-1.187535066		2.819252519
