12
-187.38518821
Al		1.301920026		0.026450476		2.433640381
Al		1.26092622		1.207737752		-0.074700352
Al		-0.299809297		0.813291324		-2.332444929
F		-1.682261932		-0.356245428		-2.212554481
F		2.064711748		-0.348803418		0.735608885
F		0.038593308		1.83347915		-3.791939906
F		-0.36620781		1.927737205		-0.787120067
F		2.593441881		2.414455729		-0.323297328
F		1.276320719		0.038488188		-1.610314537
F		0.446177103		1.528656347		1.630204598
F		2.532925054		0.608152915		3.630166297
F		0.008850955		-1.186996143		2.819496782
