12
-187.38518821
Al		1.302681393		0.025562506		2.433237913
Al		1.260300255		1.208467808		-0.074369458
Al		-0.299047933		0.812403354		-2.332847397
F		-1.682724016		-0.355706505		-2.212310218
F		2.064772441		-0.34867266		0.734806676
F		0.038159505		1.833985088		-3.791710592
F		-0.366490362		1.927545502		-0.787860158
F		2.593661565		2.414199514		-0.323413455
F		1.276855007		0.038386293		-1.609707517
F		0.446368149		1.528231994		1.630873736
F		2.532491251		0.608658853		3.630395611
F		0.008388868		-1.18645722		2.819741045
