12
-187.38518821
Al		1.284662374		0.046577796		2.442762989
Al		1.27511476		1.191189816		-0.082200616
Al		-0.317066881		0.833418644		-2.323322321
F		-1.671788028		-0.368461016		-2.218091109
F		2.06333604		-0.351767266		0.753792289
F		0.048426176		1.822011222		-3.79713769
F		-0.359803298		1.932082473		-0.770344671
F		2.588462377		2.420263269		-0.320665116
F		1.264210191		0.040797808		-1.624073657
F		0.441846727		1.538275015		1.61503747
F		2.542757922		0.596684987		3.624968513
F		0.019324927		-1.199211731		2.813960154
