12
-187.38518821
Al		1.304457916		0.023490576		2.432298821
Al		1.25883967		1.210171272		-0.073597372
Al		-0.297271417		0.810331424		-2.333786489
F		-1.683802212		-0.354449018		-2.211740271
F		2.064914058		-0.348367558		0.732934855
F		0.037147298		1.83516561		-3.791175526
F		-0.36714965		1.927098195		-0.789587037
F		2.594174161		2.413601679		-0.323684418
F		1.278101679		0.038148538		-1.608291137
F		0.446813923		1.527241837		1.632435058
F		2.531479044		0.609839375		3.630930677
F		0.007310665		-1.185199733		2.820310992
