12
-187.38518821
Al		1.304711705		0.023194586		2.432164665
Al		1.258631015		1.210414624		-0.073487074
Al		-0.297017629		0.810035434		-2.333920645
F		-1.68395624		-0.354269377		-2.21165885
F		2.064934289		-0.348323972		0.732667452
F		0.037002697		1.835334256		-3.791099088
F		-0.367243834		1.927034294		-0.789833734
F		2.594247389		2.413516274		-0.323723127
F		1.278279775		0.038114573		-1.608088797
F		0.446877605		1.527100386		1.632658104
F		2.531334443		0.610008021		3.631007115
F		0.007156636		-1.185020092		2.820392413
