12
-187.38518821
Al		1.304965494		0.022898596		2.432030509
Al		1.25842236		1.210657976		-0.073376776
Al		-0.296763841		0.809739444		-2.334054801
F		-1.684110268		-0.354089736		-2.211577429
F		2.06495452		-0.348280386		0.732400049
F		0.036858096		1.835502902		-3.79102265
F		-0.367338018		1.926970393		-0.790080431
F		2.594320617		2.413430869		-0.323761836
F		1.278457871		0.038080608		-1.607886457
F		0.446941287		1.526958935		1.63288115
F		2.531189842		0.610176667		3.631083553
F		0.007002607		-1.184840451		2.820473834
