12
-187.38518821
Al		1.284916163		0.046281806		2.442628833
Al		1.274906105		1.191433168		-0.082090318
Al		-0.316813093		0.833122654		-2.323456477
F		-1.671942056		-0.368281375		-2.218009688
F		2.063356271		-0.35172368		0.753524886
F		0.048281575		1.822179868		-3.797061252
F		-0.359897482		1.932018572		-0.770591368
F		2.588535605		2.420177864		-0.320703825
F		1.264388287		0.040763843		-1.623871317
F		0.441910409		1.538133564		1.615260516
F		2.542613321		0.596853633		3.625044951
F		0.019170898		-1.19903209		2.814041575
