12
-187.38518821
Al		1.305726861		0.022010626		2.431628041
Al		1.257796395		1.211388032		-0.073045882
Al		-0.296002477		0.808851474		-2.334457269
F		-1.684572352		-0.353550813		-2.211333166
F		2.065015213		-0.348149628		0.73159784
F		0.036424293		1.83600884		-3.790793336
F		-0.36762057		1.92677869		-0.790820522
F		2.594540301		2.413174654		-0.323877963
F		1.278992159		0.037978713		-1.607279437
F		0.447132333		1.526534582		1.633550288
F		2.530756039		0.610682605		3.631312867
F		0.00654052		-1.184301528		2.820718097
