12
-187.38518821
Al		1.306234439		0.021418646		2.431359729
Al		1.257379085		1.211874736		-0.072825286
Al		-0.295494901		0.808259494		-2.334725581
F		-1.684880408		-0.353191531		-2.211170324
F		2.065055675		-0.348062456		0.731063034
F		0.036135091		1.836346132		-3.79064046
F		-0.367808938		1.926650888		-0.791313916
F		2.594686757		2.413003844		-0.323955381
F		1.279348351		0.037910783		-1.606874757
F		0.447259697		1.52625168		1.63399638
F		2.530466837		0.611019897		3.631465743
F		0.006232462		-1.183942246		2.820880939
