12
-187.38518821
Al		1.307249595		0.020234686		2.430823105
Al		1.256544465		1.212848144		-0.072384094
Al		-0.294479749		0.807075534		-2.335262205
F		-1.68549652		-0.352472967		-2.21084464
F		2.065136599		-0.347888112		0.729993422
F		0.035556687		1.837020716		-3.790334708
F		-0.368185674		1.926395284		-0.792300704
F		2.594979669		2.412662224		-0.324110217
F		1.280060735		0.037774923		-1.606065397
F		0.447514425		1.525685876		1.634888564
F		2.529888433		0.611694481		3.631771495
F		0.005616346		-1.183223682		2.821206623
