12
-187.38518821
Al		1.280094172		0.051905616		2.445177797
Al		1.27887055		1.18680948		-0.08418598
Al		-0.321635065		0.838746464		-2.320907513
F		-1.669015524		-0.371694554		-2.219556687
F		2.062971882		-0.352551814		0.758605543
F		0.051028994		1.818975594		-3.798513574
F		-0.358107986		1.933232691		-0.765904125
F		2.587144273		2.421800559		-0.319968354
F		1.261004463		0.041409178		-1.627715777
F		0.440700451		1.540821133		1.611022642
F		2.54536074		0.593649359		3.623592629
F		0.022097449		-1.202445269		2.812494576
