12
-187.38518821
Al		1.279840383		0.052201606		2.445311953
Al		1.279079205		1.186566128		-0.084296278
Al		-0.321888853		0.839042454		-2.320773357
F		-1.668861496		-0.371874195		-2.219638108
F		2.062951651		-0.3525954		0.758872946
F		0.051173595		1.818806948		-3.798590012
F		-0.358013802		1.933296592		-0.765657428
F		2.587071045		2.421885964		-0.319929645
F		1.260826367		0.041443143		-1.627918117
F		0.440636769		1.540962584		1.610799596
F		2.545505341		0.593480713		3.623516191
F		0.022251478		-1.20262491		2.812413155
