12
-187.38518821
Al		1.279586594		0.052497596		2.445446109
Al		1.27928786		1.186322776		-0.084406576
Al		-0.322142641		0.839338444		-2.320639201
F		-1.668707468		-0.372053836		-2.219719529
F		2.06293142		-0.352638986		0.759140349
F		0.051318196		1.818638302		-3.79866645
F		-0.357919618		1.933360493		-0.765410731
F		2.586997817		2.421971369		-0.319890936
F		1.260648271		0.041477108		-1.628120457
F		0.440573087		1.541104035		1.61057655
F		2.545649942		0.593312067		3.623439753
F		0.022405507		-1.202804551		2.812331734
