12
-187.38518821
Al		1.279079016		0.053089576		2.445714421
Al		1.27970517		1.185836072		-0.084627172
Al		-0.322650217		0.839930424		-2.320370889
F		-1.668399412		-0.372413118		-2.219882371
F		2.062890958		-0.352726158		0.759675155
F		0.051607398		1.81830101		-3.798819326
F		-0.35773125		1.933488295		-0.764917337
F		2.586851361		2.422142179		-0.319813518
F		1.260292079		0.041545038		-1.628525137
F		0.440445723		1.541386937		1.610130458
F		2.545939144		0.592974775		3.623286877
F		0.022713565		-1.203163833		2.812168892
