12
-187.38518821
Al		1.278571438		0.053681556		2.445982733
Al		1.28012248		1.185349368		-0.084847768
Al		-0.323157793		0.840522404		-2.320102577
F		-1.668091356		-0.3727724		-2.220045213
F		2.062850496		-0.35281333		0.760209961
F		0.0518966		1.817963718		-3.798972202
F		-0.357542882		1.933616097		-0.764423943
F		2.586704905		2.422312989		-0.3197361
F		1.259935887		0.041612968		-1.628929817
F		0.440318359		1.541669839		1.609684366
F		2.546228346		0.592637483		3.623134001
F		0.023021623		-1.203523115		2.81200605
