12
-187.38518821
Al		1.27806386		0.054273536		2.446251045
Al		1.28053979		1.184862664		-0.085068364
Al		-0.323665369		0.841114384		-2.319834265
F		-1.6677833		-0.373131682		-2.220208055
F		2.062810034		-0.352900502		0.760744767
F		0.052185802		1.817626426		-3.799125078
F		-0.357354514		1.933743899		-0.763930549
F		2.586558449		2.422483799		-0.319658682
F		1.259579695		0.041680898		-1.629334497
F		0.440190995		1.541952741		1.609238274
F		2.546517548		0.592300191		3.622981125
F		0.023329681		-1.203882397		2.811843208
