12
-187.38518821
Al		1.282124484		0.049537696		2.444104549
Al		1.27720131		1.188756296		-0.083303596
Al		-0.319604761		0.836378544		-2.321980761
F		-1.670247748		-0.370257426		-2.218905319
F		2.06313373		-0.352203126		0.756466319
F		0.049872186		1.820324762		-3.79790207
F		-0.358861458		1.932721483		-0.767877701
F		2.587730097		2.421117319		-0.320278026
F		1.262429231		0.041137458		-1.626097057
F		0.441209907		1.539689525		1.61280701
F		2.544203932		0.594998527		3.624204133
F		0.020865217		-1.201008141		2.813145944
