12
-187.38518821
Al		1.277302493		0.055161506		2.446653513
Al		1.281165755		1.184132608		-0.085399258
Al		-0.324426733		0.842002354		-2.319431797
F		-1.667321216		-0.373670605		-2.220452318
F		2.062749341		-0.35303126		0.761546976
F		0.052619605		1.817120488		-3.799354392
F		-0.357071962		1.933935602		-0.763190458
F		2.586338765		2.422740014		-0.319542555
F		1.259045407		0.041782793		-1.629941517
F		0.439999949		1.542377094		1.608569136
F		2.546951351		0.591794253		3.622751811
F		0.023791768		-1.20442132		2.811598945
