12
-187.38518821
Al		1.276033548		0.056641456		2.447324293
Al		1.28220903		1.182915848		-0.085950748
Al		-0.325695673		0.843482304		-2.318761017
F		-1.666551076		-0.37456881		-2.220859423
F		2.062648186		-0.35324919		0.762883991
F		0.05334261		1.816277258		-3.799736582
F		-0.356601042		1.934255107		-0.761956973
F		2.585972625		2.423167039		-0.31934901
F		1.258154927		0.041952618		-1.630953217
F		0.439681539		1.543084349		1.607453906
F		2.547674356		0.590951023		3.622369621
F		0.024561913		-1.205319525		2.81119184
