12
-187.38518821
Al		1.274003236		0.059009376		2.448397541
Al		1.28387827		1.180969032		-0.086833132
Al		-0.327725977		0.845850224		-2.317687769
F		-1.665318852		-0.376005938		-2.221510791
F		2.062486338		-0.353597878		0.765023215
F		0.054499418		1.81492809		-3.800348086
F		-0.35584757		1.934766315		-0.759983397
F		2.585386801		2.423850279		-0.319039338
F		1.256730159		0.042224338		-1.632571937
F		0.439172083		1.544215957		1.605669538
F		2.548831164		0.589601855		3.621758117
F		0.025794145		-1.206756653		2.810540472
