12
-187.38518821
Al		1.273749447		0.059305366		2.448531697
Al		1.284086925		1.18072568		-0.08694343
Al		-0.327979765		0.846146214		-2.317553613
F		-1.665164824		-0.376185579		-2.221592212
F		2.062466107		-0.353641464		0.765290618
F		0.054644019		1.814759444		-3.800424524
F		-0.355753386		1.934830216		-0.7597367
F		2.585313573		2.423935684		-0.319000629
F		1.256552063		0.042258303		-1.632774277
F		0.439108401		1.544357408		1.605446492
F		2.548975765		0.589433209		3.621681679
F		0.025948174		-1.206936294		2.810459051
