12
-187.38518821
Al		1.273495658		0.059601356		2.448665853
Al		1.28429558		1.180482328		-0.087053728
Al		-0.328233553		0.846442204		-2.317419457
F		-1.665010796		-0.37636522		-2.221673633
F		2.062445876		-0.35368505		0.765558021
F		0.05478862		1.814590798		-3.800500962
F		-0.355659202		1.934894117		-0.759490003
F		2.585240345		2.424021089		-0.31896192
F		1.256373967		0.042292268		-1.632976617
F		0.439044719		1.544498859		1.605223446
F		2.549120366		0.589264563		3.621605241
F		0.026102203		-1.207115935		2.81037763
