12
-187.38518821
Al		1.281616906		0.050129676		2.444372861
Al		1.27761862		1.188269592		-0.083524192
Al		-0.320112337		0.836970524		-2.321712449
F		-1.669939692		-0.370616708		-2.219068161
F		2.063093268		-0.352290298		0.757001125
F		0.050161388		1.81998747		-3.798054946
F		-0.35867309		1.932849285		-0.767384307
F		2.587583641		2.421288129		-0.320200608
F		1.262073039		0.041205388		-1.626501737
F		0.441082543		1.539972427		1.612360918
F		2.544493134		0.594661235		3.624051257
F		0.021173275		-1.201367423		2.812983102
