12
-187.38518821
Al		1.270957768		0.062561256		2.450007413
Al		1.28638213		1.178048808		-0.088156708
Al		-0.330771433		0.849402104		-2.316077897
F		-1.663470516		-0.37816163		-2.222487843
F		2.062243566		-0.35412091		0.768232051
F		0.05623463		1.812904338		-3.801265342
F		-0.354717362		1.935533127		-0.757023033
F		2.584508065		2.424875139		-0.31857483
F		1.254593007		0.042631918		-1.635000017
F		0.438407899		1.545913369		1.602992986
F		2.550566376		0.587578103		3.620840861
F		0.027642493		-1.208912345		2.80956342
