12
-187.38518821
Al		1.270703979		0.062857246		2.450141569
Al		1.286590785		1.177805456		-0.088267006
Al		-0.331025221		0.849698094		-2.315943741
F		-1.663316488		-0.378341271		-2.222569264
F		2.062223335		-0.354164496		0.768499454
F		0.056379231		1.812735692		-3.80134178
F		-0.354623178		1.935597028		-0.756776336
F		2.584434837		2.424960544		-0.318536121
F		1.254414911		0.042665883		-1.635202357
F		0.438344217		1.54605482		1.60276994
F		2.550710977		0.587409457		3.620764423
F		0.027796522		-1.209091986		2.809481999
