12
-187.38518821
Al		1.267658511		0.066409126		2.451751441
Al		1.289094645		1.174885232		-0.089590582
Al		-0.334070677		0.853249974		-2.314333869
F		-1.661468152		-0.380496963		-2.223546316
F		2.061980563		-0.354687528		0.77170829
F		0.058114443		1.81071194		-3.802259036
F		-0.35349297		1.93636384		-0.753815972
F		2.583556101		2.425985404		-0.318071613
F		1.252277759		0.043073463		-1.637630437
F		0.437580033		1.547752232		1.600093388
F		2.552446189		0.585385705		3.619847167
F		0.02964487		-1.211247678		2.808504947
