12
-187.38518821
Al		1.281109328		0.050721656		2.444641173
Al		1.27803593		1.187782888		-0.083744788
Al		-0.320619913		0.837562504		-2.321444137
F		-1.669631636		-0.37097599		-2.219231003
F		2.063052806		-0.35237747		0.757535931
F		0.05045059		1.819650178		-3.798207822
F		-0.358484722		1.932977087		-0.766890913
F		2.587437185		2.421458939		-0.32012319
F		1.261716847		0.041273318		-1.626906417
F		0.440955179		1.540255329		1.611914826
F		2.544782336		0.594323943		3.623898381
F		0.021481333		-1.201726705		2.81282026
