12
-187.38518821
Al		1.265881988		0.068481056		2.452690533
Al		1.29055523		1.173181768		-0.090362668
Al		-0.335847193		0.855321904		-2.313394777
F		-1.660389956		-0.38175445		-2.224116263
F		2.061838946		-0.35499263		0.773580111
F		0.05912665		1.809531418		-3.802794102
F		-0.352833682		1.936811147		-0.752089093
F		2.583043505		2.426583239		-0.31780065
F		1.251031087		0.043311218		-1.639046817
F		0.437134259		1.548742389		1.598532066
F		2.553458396		0.584205183		3.619312101
F		0.030723073		-1.212505165		2.807935
