12
-187.38518821
Al		1.265628199		0.068777046		2.452824689
Al		1.290763885		1.172938416		-0.090472966
Al		-0.336100981		0.855617894		-2.313260621
F		-1.660235928		-0.381934091		-2.224197684
F		2.061818715		-0.355036216		0.773847514
F		0.059271251		1.809362772		-3.80287054
F		-0.352739498		1.936875048		-0.751842396
F		2.582970277		2.426668644		-0.317761941
F		1.250852991		0.043345183		-1.639249157
F		0.437070577		1.54888384		1.59830902
F		2.553602997		0.584036537		3.619235663
F		0.030877102		-1.212684806		2.807853579
