12
-187.38518821
Al		1.26537441		0.069073036		2.452958845
Al		1.29097254		1.172695064		-0.090583264
Al		-0.336354769		0.855913884		-2.313126465
F		-1.6600819		-0.382113732		-2.224279105
F		2.061798484		-0.355079802		0.774114917
F		0.059415852		1.809194126		-3.802946978
F		-0.352645314		1.936938949		-0.751595699
F		2.582897049		2.426754049		-0.317723232
F		1.250674895		0.043379148		-1.639451497
F		0.437006895		1.549025291		1.598085974
F		2.553747598		0.583867891		3.619159225
F		0.031031131		-1.212864447		2.807772158
