12
-187.38518821
Al		1.265120621		0.069369026		2.453093001
Al		1.291181195		1.172451712		-0.090693562
Al		-0.336608557		0.856209874		-2.312992309
F		-1.659927872		-0.382293373		-2.224360526
F		2.061778253		-0.355123388		0.77438232
F		0.059560453		1.80902548		-3.803023416
F		-0.35255113		1.93700285		-0.751349002
F		2.582823821		2.426839454		-0.317684523
F		1.250496799		0.043413113		-1.639653837
F		0.436943213		1.549166742		1.597862928
F		2.553892199		0.583699245		3.619082787
F		0.03118516		-1.213044088		2.807690737
