12
-187.38518821
Al		1.263344098		0.071440956		2.454032093
Al		1.29264178		1.170748248		-0.091465648
Al		-0.338385073		0.858281804		-2.312053217
F		-1.658849676		-0.38355086		-2.224930473
F		2.061636636		-0.35542849		0.776254141
F		0.06057266		1.807844958		-3.803558482
F		-0.351891842		1.937450157		-0.749622123
F		2.582311225		2.427437289		-0.31741356
F		1.249250127		0.043650868		-1.641070217
F		0.436497439		1.550156899		1.596301606
F		2.554904406		0.582518723		3.618547721
F		0.032263363		-1.214301575		2.80712079
