12
-187.38518821
Al		1.26283652		0.072032936		2.454300405
Al		1.29305909		1.170261544		-0.091686244
Al		-0.338892649		0.858873784		-2.311784905
F		-1.65854162		-0.383910142		-2.225093315
F		2.061596174		-0.355515662		0.776788947
F		0.060861862		1.807507666		-3.803711358
F		-0.351703474		1.937577959		-0.749128729
F		2.582164769		2.427608099		-0.317336142
F		1.248893935		0.043718798		-1.641474897
F		0.436370075		1.550439801		1.595855514
F		2.555193608		0.582181431		3.618394845
F		0.032571421		-1.214660857		2.806957948
