12
-187.38518821
Al		1.28060175		0.051313636		2.444909485
Al		1.27845324		1.187296184		-0.083965384
Al		-0.321127489		0.838154484		-2.321175825
F		-1.66932358		-0.371335272		-2.219393845
F		2.063012344		-0.352464642		0.758070737
F		0.050739792		1.819312886		-3.798360698
F		-0.358296354		1.933104889		-0.766397519
F		2.587290729		2.421629749		-0.320045772
F		1.261360655		0.041341248		-1.627311097
F		0.440827815		1.540538231		1.611468734
F		2.545071538		0.593986651		3.623745505
F		0.021789391		-1.202085987		2.812657418
