12
-187.38518821
Al		1.261313786		0.073808876		2.455105341
Al		1.29431102		1.168801432		-0.092348032
Al		-0.340415377		0.860649724		-2.310979969
F		-1.657617452		-0.384987988		-2.225581841
F		2.061474788		-0.355777178		0.778393365
F		0.061729468		1.80649579		-3.804169986
F		-0.35113837		1.937961365		-0.747648547
F		2.581725401		2.428120529		-0.317103888
F		1.247825359		0.043922588		-1.642688937
F		0.435987983		1.551288507		1.594517238
F		2.556061214		0.581169555		3.617936217
F		0.033495595		-1.215738703		2.806469422
