12
-187.38518821
Al		1.260552419		0.074696846		2.455507809
Al		1.294936985		1.168071376		-0.092678926
Al		-0.341176741		0.861537694		-2.310577501
F		-1.657155368		-0.385526911		-2.225826104
F		2.061414095		-0.355907936		0.779195574
F		0.062163271		1.805989852		-3.8043993
F		-0.350855818		1.938153068		-0.746908456
F		2.581505717		2.428376744		-0.316987761
F		1.247291071		0.044024483		-1.643295957
F		0.435796937		1.55171286		1.5938481
F		2.556495017		0.580663617		3.617706903
F		0.033957682		-1.216277626		2.806225159
