12
-187.38518821
Al		1.260044841		0.075288826		2.455776121
Al		1.295354295		1.167584672		-0.092899522
Al		-0.341684317		0.862129674		-2.310309189
F		-1.656847312		-0.385886193		-2.225988946
F		2.061373633		-0.355995108		0.77973038
F		0.062452473		1.80565256		-3.804552176
F		-0.35066745		1.93828087		-0.746415062
F		2.581359261		2.428547554		-0.316910343
F		1.246934879		0.044092413		-1.643700637
F		0.435669573		1.551995762		1.593402008
F		2.556784219		0.580326325		3.617554027
F		0.03426574		-1.216636908		2.806062317
