12
-187.38518821
Al		1.280347961		0.051609626		2.445043641
Al		1.278661895		1.187052832		-0.084075682
Al		-0.321381277		0.838450474		-2.321041669
F		-1.669169552		-0.371514913		-2.219475266
F		2.062992113		-0.352508228		0.75833814
F		0.050884393		1.81914424		-3.798437136
F		-0.35820217		1.93316879		-0.766150822
F		2.587217501		2.421715154		-0.320007063
F		1.261182559		0.041375213		-1.627513437
F		0.440764133		1.540679682		1.611245688
F		2.545216139		0.593818005		3.623669067
F		0.02194342		-1.202265628		2.812575997
