12
-187.38518821
Al		1.258014529		0.077656746		2.456849369
Al		1.297023535		1.165637856		-0.093781906
Al		-0.343714621		0.864497594		-2.309235941
F		-1.655615088		-0.387323321		-2.226640314
F		2.061211785		-0.356343796		0.781869604
F		0.063609281		1.804303392		-3.80516368
F		-0.349913978		1.938792078		-0.744441486
F		2.580773437		2.429230794		-0.316600671
F		1.245510111		0.044364133		-1.645319357
F		0.435160117		1.55312737		1.59161764
F		2.557941027		0.578977157		3.616942523
F		0.035497972		-1.218074036		2.805410949
