12
-187.38518821
Al		1.25776074		0.077952736		2.456983525
Al		1.29723219		1.165394504		-0.093892204
Al		-0.343968409		0.864793584		-2.309101785
F		-1.65546106		-0.387502962		-2.226721735
F		2.061191554		-0.356387382		0.782137007
F		0.063753882		1.804134746		-3.805240118
F		-0.349819794		1.938855979		-0.744194789
F		2.580700209		2.429316199		-0.316561962
F		1.245332015		0.044398098		-1.645521697
F		0.435096435		1.553268821		1.591394594
F		2.558085628		0.578808511		3.616866085
F		0.035652001		-1.218253677		2.805329528
