12
Properties=species:S:1:pos:R:3:forces:R:3 energy=-185.77708798 pbc="F F F"
Al    0.6141970720000001    -2.3069733109999997    -1.8721500610000001    0.021723    0.000798    -0.051847
Al    2.3551240300000003    -0.524918456    -0.812151724    -0.006782    0.001048    0.026146
Al    -0.015405306000000007    0.325401803    -1.804980783    -0.01312    0.003726    0.027282
F    3.888321188    -0.168285216    -0.023081523    0.001256    0.000446    -0.000808
F    0.129375426    -4.011305493    -2.293967836    -0.002024    -0.003813    0.001658
F    2.3842468379999997    -1.776563376    -2.309931789    -0.017324    -0.007503    0.000244
F    1.7978694949999998    0.687693839    -2.25340292    0.014065    0.016363    -0.018833
F    -1.2212027220000001    1.664514731    -2.163767211    2e-06    0.00102    -0.001515
F    -0.8684625860000001    -1.277744652    -1.024770569    -0.01596    0.011175    0.009661
F    0.16585712599999997    -0.980820909    -3.239348181    0.005116    -0.016529    0.007913
F    0.763549796    0.390770198    -0.038825302    0.004723    -0.008333    -0.021031
F    1.3499271339999999    -2.07348701    -0.095354273    0.008325    0.001603    0.021132
