      12
SCF Done            -185.77708798
Al            0.287908072        -2.324769311        -1.854601061
Al            2.028835030        -0.542714456        -0.794602724
Al           -0.341694306         0.307605803        -1.787431783
F             3.614506188        -0.183219216        -0.008354523
F            -0.144439574        -4.026239493        -2.279240836
F             2.110431838        -1.791497376        -2.295204789
F             1.524054495         0.672759839        -2.238675920
F            -1.495017722         1.649580731        -2.149040211
F            -1.142277586        -1.292678652        -1.010043569
F            -0.107957874        -0.995754909        -3.224621181
F             0.489734796         0.375836198        -0.024098302
F             1.076112134        -2.088421010        -0.080627273
