12
Properties=species:S:1:pos:R:3:forces:R:3 energy=-169.77017273 pbc="F F F"
Al    -0.7828752609999999    2.65686042    -1.4701452910000001    26.803354    -31.505171    -17.43268
Al    -0.377908355    0.259814206    -2.385173374    -1.174851    7.967404    0.409376
Al    -2.0875489760000003    -0.590922918    -0.5982218370000001    3.6612    -3.161815    -4.90573
F    -0.9061005409999999    3.468909636    -0.509872657    -0.210478    1.769789    3.012925
F    -3.604759247    3.3290459930000003    -2.4739445919999996    -3.37821    0.870317    0.114071
F    -1.4677824800000001    -1.592510027    -1.625178961    -1.072288    0.554644    1.5505
F    -2.763506962    1.290886083    0.385725562    -1.45417    1.404396    2.196028
F    -3.237798763    -1.2711266319999999    0.587457253    -0.248325    1.206069    0.490603
F    0.578354398    -0.5110983410000001    -3.601066504    0.221628    -0.00889    -0.091494
F    -0.43864792500000005    1.900479914    -1.9660660309999998    -20.876052    22.432936    12.548262
F    -2.5920631569999997    0.474485151    -2.2668742280000003    -1.449878    -0.915698    0.704327
F    -0.376130368    0.131865239    -0.341659408    -0.821929    -0.613982    1.403813
