      12
SCF Done            -186.93070636
Al            0.343284393        -0.562210158         1.780681339
Al            2.404805365        -1.804459072        -0.535338497
Al           -0.939986181        -1.847415158        -1.022613743
F             3.512863307        -0.446097193        -1.133725580
F            -1.865100254        -0.515164888        -1.917196997
F             2.745165595        -3.623935694        -0.489114443
F            -1.233522566        -3.675032802        -1.068736920
F             1.924344197        -1.426735393         1.246072602
F             0.837993164        -1.489496282        -1.533390265
F             0.100566352        -1.197448163         3.502765489
F             0.408666571         1.184150699         1.177928536
F            -0.997315268        -1.464257383         0.820440014
