      12
SCF Done            -168.85420048
Al            0.343284395        -0.562210078         1.780681317
Al            2.404805363        -1.804459054        -0.535338490
Al           -0.939986182        -1.847415140        -1.022613736
F             3.512863311        -0.446097193        -1.133725603
F            -1.865100251        -0.515164889        -1.917197021
F             2.745165587        -3.623935677        -0.489114392
F            -1.233522573        -3.675032785        -1.068736869
F             1.924344196        -1.426735332         1.246072600
F             0.837993164        -1.489496282        -1.533390265
F             0.100566351        -1.197448041         3.502765481
F             0.408666579         1.184150766         1.177928472
F            -0.997315269        -1.464257321         0.820440012
