12
Properties=species:S:1:pos:R:3:forces:R:3 energy=-187.19590321 pbc="F F F"
Al    0.33469119300000005    -0.706281758    1.761383739    0.453558    0.922928    -0.344426
Al    2.102894565    -2.204819272    -0.5417986969999999    -0.202757    -0.90699    -0.199243
Al    -1.176769781    -2.092281958    -0.778886143    -0.397264    -0.052493    0.267355
F    3.2975791070000002    -0.943704593    -1.29004258    0.354635    0.390545    -0.203619
F    -2.0630716540000003    -0.800035288    -1.740246797    -0.024703    0.061336    -0.062361
F    2.441760195    -3.928937094    -0.40896724300000004    -0.047445    0.32645    -0.037501
F    -1.558582366    -3.821725802    -0.74492852    -0.018794    -0.096633    -0.037974
F    1.811502797    -1.6196035930000001    1.192992402    -0.0785    0.107222    0.317975
F    0.579880164    -1.8497554820000002    -1.436619465    0.40232    0.050126    -0.090722
F    0.169822552    -1.130201763    3.515642489    -0.085545    -0.153995    0.476702
F    0.448219571    1.004414499    1.090710136    -0.028629    -0.403816    0.170685
F    -1.073128268    -1.5422935830000002    0.950731414    -0.326879    -0.244683    -0.256868
