      12
SCF Done            -187.19590321
Al            0.517295193        -0.444020758         1.690929739
Al            2.285498565        -1.942558272        -0.612252697
Al           -0.994165781        -1.830020958        -0.849340143
F             3.450817107        -0.723619593        -1.349165580
F            -1.909833654        -0.579950288        -1.799369797
F             2.594998195        -3.708852094        -0.468090243
F            -1.405344366        -3.601640802        -0.804051520
F             1.964740797        -1.399518593         1.133869402
F             0.733118164        -1.629670482        -1.495742465
F             0.323060552        -0.910116763         3.456519489
F             0.601457571         1.224499499         1.031587136
F            -0.919890268        -1.322208583         0.891608414
