      12
SCF Done            -184.41647082
Al            0.220886372        -2.341821711        -1.708718561
Al            1.980058530        -0.554728356        -0.689027324
Al           -0.389823806         0.295328803        -1.683622783
F             3.629320288        -0.178962716        -0.040702223
F            -0.162628974        -4.031096993        -2.238677836
F             2.151647038        -1.827705576        -2.347376989
F             1.567711195         0.693828339        -2.323381420
F            -1.479033422         1.653361431        -2.184583111
F            -1.084202086        -1.260931052        -1.048125569
F            -0.114335974        -1.014916209        -3.298367881
F             0.526433396         0.375268098        -0.114532202
F             1.085578134        -2.039213510        -0.137508973
