      12
SCF Done            -169.47915721
Al            0.380155995        -0.598923078         1.744860917
Al            2.332762563        -1.780457454        -0.538341490
Al           -0.915061782        -1.839196940        -0.978883336
F             3.362037911        -0.319215593        -0.948022403
F            -1.892533651        -0.743859889        -2.076281821
F             2.879142987        -3.523299277        -0.728471792
F            -1.156475573        -3.649556785        -0.801710669
F             1.779219196        -1.712052932         1.238779800
F             0.807022164        -1.508811282        -1.492884865
F            -0.006937049        -1.173849441         3.426391481
F             0.747558379         1.139539566         1.248308672
F            -1.073163069        -1.157556521         0.733087612
