12
Properties=species:S:1:pos:R:3:forces:R:3 energy=-179.37468472 pbc="F F F"
Al    0.37660787199999995    -1.993136011    -1.741526761    1.397271    4.6442    1.1852
Al    1.9110663300000001    -0.713021656    -0.884522924    0.062626    0.646572    0.10414
Al    -0.490989806    0.053846302999999984    -1.903644183    0.554459    0.699191    0.337204
F    3.414781888    -0.134883016    -0.12339372300000001    2.125823    0.306794    1.016606
F    -0.004859673999999994    -3.457566593    -2.0879648360000003    1.23569    4.592755    1.104646
F    1.905189938    -1.963331176    -2.3511297890000002    -5.744202    -2.69186    0.128101
F    1.655825495    0.7645370389999999    -2.04374122    1.08354    1.376042    -2.498577
F    -1.401993322    1.678877431    -2.134893511    -1.217216    1.204127    -0.421525
F    -1.039382586    -1.513967452    -1.021384069    3.854617    -4.40988    -2.052115
F    -0.047839674    -1.263898609    -3.170266281    1.358332    -5.039447    3.357851
F    0.742806896    0.534270698    -0.06503990199999998    -1.293215    0.776616    2.652342
F    0.9131629339999999    -2.21352401    -0.20120207299999998    -3.417726    -2.105111    -4.913874
