12
Properties=species:S:1:pos:R:3:forces:R:3 energy=-186.29459413 pbc="F F F"
Al    -0.16160575700000002    1.848009196    2.1912562209999997    0.46735    1.225724    -0.283179
Al    2.6001533959999996    2.585483425    1.7774463749999998    0.301012    0.254408    0.053778
Al    1.373058358    2.4705837809999998    -0.629151653    0.040745    -0.104563    0.252972
F    1.0791424520000001    3.025545319    2.970963432    -0.063541    0.016856    0.032167
F    -1.623922947    3.0228627429999997    2.0619453950000004    -0.328687    0.328836    0.044738
F    -0.59509426    0.01478168199999999    2.69180866    -0.382673    -1.47839    -0.019962
F    1.947310569    0.844220285    1.9180408340000001    0.121454    -0.220163    0.016968
F    3.0959187420000003    1.856174172    -0.149843954    0.01112    -0.057427    -0.111833
F    0.952510114    2.779021052    -2.376228004    -0.057488    0.005286    -0.1935
F    1.627306768    3.9022025869999997    0.671086665    -0.002603    0.10104    0.022272
F    4.105515166    3.404824711    2.3851202679999997    -0.091214    -0.012361    -0.042074
F    0.04523479999999999    1.6131414679999998    0.283866705    -0.015475    -0.059246    0.227651
