12
Properties=species:S:1:pos:R:3:forces:R:3 energy=-185.69695674 pbc="F F F"
Al    0.383314372    -2.3237700109999997    -2.083128561    -0.116085    0.40553    0.603284
Al    1.98309773    -0.567736656    -0.7468666239999999    -0.055467    -0.103262    -0.287146
Al    -0.368185206    0.27348970300000003    -1.727884383    0.179742    -0.198024    -0.223334
F    3.602631888    -0.08745691600000001    -0.043753323    0.045211    0.00622    0.149539
F    -0.426288974    -4.269479993    -1.787009936    0.013222    -0.404869    -0.37811
F    2.190336438    -1.736301976    -2.3978387889999997    0.016286    0.051518    0.02937
F    1.477895895    0.621282439    -2.17945322    0.005475    0.002034    -0.006044
F    -1.4069420220000002    1.7256779309999999    -2.152159311    -0.141107    0.082648    0.090717
F    -1.054676586    -1.305053852    -1.105972169    0.033601    0.028295    0.008144
F    -0.05146797400000001    -0.933141609    -3.336354081    0.00544    0.054951    0.024894
F    0.484090696    0.445818498    0.04938729800000001    0.018146    0.032251    -0.004851
F    1.081949334    -2.07169941    -0.212273173    -0.004464    0.042706    -0.006464
