      12
SCF Done            -182.69785771
Al           -0.371745238         1.029316360        -1.940456336
Al           -0.665929114         1.033119653         1.592523836
Al           -2.935043719         0.477315689        -1.836840942
F            -3.496338261         0.324171408        -3.506179508
F            -1.602038557        -0.771161301        -1.853494845
F            -2.236210687         2.163208603        -1.909460583
F            -2.106141525         0.699132139         0.400652624
F             0.951760327         1.344550043        -0.409483911
F            -0.273749175         2.888958397         2.035478947
F             0.453875115        -0.477832058         2.099688645
F            -4.198332692         0.226591270        -0.667869565
F             0.918349427         1.280498137        -3.389254829
