      12
SCF Done            -175.09280663
Al           -0.656094038         0.966637160        -2.004736336
Al           -0.491965914         1.064288453         1.255524636
Al           -3.399107719         0.373490089        -2.022103342
F            -3.418811861         0.345833008        -3.248916308
F            -1.220052957        -0.514608501        -1.831738845
F            -1.782568287         2.088201403        -1.881380583
F            -1.976219925         0.728773739         0.482610224
F             0.712268327         1.299618843        -0.051480711
F            -0.297303575         2.767967197         1.999417347
F             0.382760715        -0.378756058         2.059430245
F            -4.099953492         0.246332070        -0.747604765
F             0.795591027         1.256026137        -3.281314829
