      12
SCF Done            -161.72217386
Al           -0.656094038         0.966637160        -2.004736336
Al           -0.491965781         1.064288491         1.255524601
Al           -3.399107703         0.373490078        -2.022103609
F            -3.418811855         0.345832936        -3.248916561
F            -1.220052958        -0.514608504        -1.831738938
F            -1.782568293         2.088201389        -1.881380761
F            -1.976219777         0.728773855         0.482610109
F             0.712268416         1.299618897        -0.051480775
F            -0.297303381         2.767967204         1.999417371
F             0.382760808        -0.378756071         2.059430158
F            -4.099953367         0.246332126        -0.747604913
F             0.795591019         1.256026103        -3.281314844
