12
Properties=species:S:1:pos:R:3:forces:R:3 energy=-179.10301150 pbc="F F F"
Al    1.25441618    0.183528717    2.0935267730000002    0.06192    -1.518664    3.467796
Al    1.5197216999999998    1.2373927999999998    0.2702635    -0.724189    -7.539621    15.264875
Al    -0.22677966200000002    0.8669594500000001    -2.216386173    4.537021    1.039363    6.289744
F    -1.810444472    -0.494560653    -2.2083322059999997    -3.583774    -3.030208    -0.09399
F    2.0681466530000003    -0.370364053    0.731176552    -2.134392    6.134033    -3.875779
F    0.082210039    1.90631189    -3.924998033    0.61173    2.225218    -3.752306
F    -0.48640260999999996    1.959030353    -0.866105349    -1.376264    -0.478817    -2.928427
F    2.474245357    2.299775912    -0.267976443    0.66371    0.875059    -0.675088
F    1.216141739    -0.026623195    -1.766090854    -1.929497    0.166412    -2.635979
F    0.41650281699999997    1.555922129    1.604253839    3.350929    -0.263395    -6.775395
F    2.848955369    0.761934476    3.8338506370000003    -4.194315    -2.087529    -3.328845
F    -0.23561502500000003    -1.418975852    2.8103937709999998    4.717123    4.478152    -0.956606
