12
Properties=species:S:1:pos:R:3:forces:R:3 energy=-185.47425565 pbc="F F F"
Al    0.375640272    -2.229289711    -1.973924161    0.158047    0.217355    0.185911
Al    2.1943203299999996    -0.6152892560000001    -0.938239524    -0.017875    0.623831    -0.45497
Al    -0.530060406    0.291156003    -1.494751583    0.372213    0.343523    0.737585
F    3.845683688    -0.646034816    -0.12709872300000002    0.062605    0.00949    -0.142394
F    -0.07556127400000001    -4.005941993    -2.115002536    -0.008363    -0.002125    0.014592
F    2.233420238    -2.180609076    -2.282322389    0.327906    -0.422973    -0.15085
F    1.625739495    0.6227721390000001    -2.1072110200000003    -0.03762    -0.268573    0.098976
F    -1.765383522    1.445945831    -2.2672126109999997    -0.062302    -0.021044    0.124597
F    -1.3638604859999999    -1.4710878520000001    -1.172705069    -0.65785    -0.264975    0.005763
F    0.13775612599999998    -0.7202352089999999    -3.133832581    0.468813    0.000309    -0.506982
F    0.385077296    0.748365198    0.018490498    -0.149606    -0.246585    -0.241977
F    0.824995134    -1.48050011    -0.158427573    -0.455966    0.031767    0.329751
