12
Properties=species:S:1:pos:R:3:forces:R:3 energy=-181.78415945 pbc="F F F"
Al    -0.20483923800000003    0.25204536    -1.940764236    -3.649332    -0.816381    -1.451794
Al    -0.686480614    0.996940153    1.631974236    -2.381866    -0.484826    1.569386
Al    -2.926389919    0.48869698899999997    -1.834267442    3.097567    0.675234    0.304008
F    -3.522425161    0.46651190800000003    -3.497180008    0.494192    0.134267    1.439871
F    -1.429743357    -0.736365301    -1.8203352449999999    -3.223003    -2.326345    -0.041189
F    -2.479966887    2.1467855030000003    -1.946769583    -3.895466    0.785214    -0.100534
F    -2.1360899250000003    0.794062939    0.391916524    -1.799485    -0.413852    -1.30816
F    0.915624327    1.726602143    -0.430936011    4.244949    0.955182    1.980283
F    -0.29899767499999996    2.870228497    1.9982678469999997    0.943292    3.078736    0.349935
F    0.506076115    -0.513885658    2.1498152449999997    2.127301    -2.39979    0.454419
F    -4.205856292    0.30865297    -0.680279065    1.232995    0.240182    -1.378481
F    0.877838527    1.571298437    -3.4141344289999997    2.808855    0.572378    -1.817743
