      12
SCF Done            -181.78415945
Al           -0.372710238         1.028819360        -1.955579236
Al           -0.693185614         1.027970153         1.631381236
Al           -2.924433919         0.479660989        -1.834094442
F            -3.491917161         0.325349908        -3.494486008
F            -1.630143357        -0.797289301        -1.854896245
F            -2.272582887         2.175334503        -1.911591583
F            -2.115126925         0.697058939         0.393768524
F             0.996178327         1.353876143        -0.423823011
F            -0.270240675         2.907687497         2.041057847
F             0.464758115        -0.493225658         2.105918245
F            -4.188531292         0.228501970        -0.678753065
F             0.939766527         1.284756437        -3.408673429
