12
Properties=species:S:1:pos:R:3:forces:R:3 energy=-186.33981884 pbc="F F F"
Al    -1.7337759609999999    2.5396555199999997    -1.218951291    -0.097683    -0.104059    -0.108317
Al    -0.738923855    -0.009129194    -2.493344374    0.028302    0.009452    0.022599
Al    -2.028633876    -0.34046121799999995    -0.30647453700000005    0.023469    0.008469    0.027903
F    -0.966204041    3.594440136    0.084107543    0.07009    -0.049032    0.054783
F    -2.6532079470000003    3.2341269930000003    -2.740131892    0.003651    -0.047378    -0.005458
F    -1.38941388    -1.6752238270000002    -1.717724161    -0.012085    -0.003372    -0.011639
F    -2.308245162    1.467184883    0.257938462    -0.003087    0.000523    -0.001358
F    -3.398146963    -1.332950732    0.478358253    -0.050821    0.09376    0.049389
F    0.776135598    -0.387280841    -3.526146504    0.025723    0.109334    -0.034604
F    -0.552583925    1.875488514    -2.561524531    -0.00176    0.000793    -0.002815
F    -2.676293857    0.431648651    -2.045287328    0.005786    0.012635    0.007616
F    -0.147353468    0.175191539    -0.559157008    0.008416    -0.031127    0.001898
