      12
SCF Done            -186.33981884
Al           -1.711725961         2.544145520        -1.243141291
Al           -0.523548855         0.000231806        -2.343850374
Al           -2.196592876        -0.340174218        -0.508004537
F            -0.744793041         3.639501136        -0.158852457
F            -3.027986947         3.157875993        -2.328877892
F            -1.382545880        -1.673826827        -1.725257161
F            -2.530295162         1.447549883         0.055116462
F            -3.268965963        -1.258503732         0.624593253
F             0.632577598        -0.464675841        -3.656604504
F            -0.333639925         1.894492514        -2.355292531
F            -2.447309857         0.478238651        -2.296558328
F            -0.295132468         0.145127539        -0.397001008
