12
Properties=species:S:1:pos:R:3:forces:R:3 energy=-185.77507855 pbc="F F F"
Al    0.253238672    -2.6638235110000004    -1.769519261    -0.078555    -0.065303    0.142784
Al    2.06714643    -0.861614656    -0.8707493239999999    0.069334    0.049141    -0.051109
Al    -0.30079490600000003    -0.01234679700000002    -1.870643983    0.026692    0.066289    -0.080244
F    3.669410588    -0.44397981599999997    -0.122086523    0.00495    0.0021    0.006663
F    -0.221549174    -4.323456093    -2.101330036    -0.005314    -0.030864    -0.013643
F    2.085267038    -2.146227976    -2.286893989    0.071636    0.002285    -0.041005
F    1.558238495    0.33303083899999997    -2.36253592    -0.02714    -0.028001    0.035277
F    -1.4354325220000002    1.386916931    -2.275553011    -0.007049    0.007556    0.00215
F    -1.131081186    -1.495318452    -0.973646369    0.015765    -0.05141    0.004009
F    -0.131090274    -1.3513123089999999    -3.221859181    -0.010444    0.035993    -0.071713
F    0.5582475960000001    0.18902439800000004    -0.11432310200000001    -0.020822    0.042007    0.091094
F    1.085276134    -2.29023441    -0.038680873000000005    -0.039055    -0.029794    -0.024264
