      12
SCF Done            -185.77507855
Al            0.238391672        -2.337854511        -1.744760261
Al            2.052299430        -0.535645656        -0.845990324
Al           -0.315641906         0.313622203        -1.845884983
F             3.656950588        -0.170432816        -0.101308523
F            -0.234009174        -4.049909093        -2.080552036
F             2.072807038        -1.872680976        -2.266115989
F             1.545778495         0.606577839        -2.341757920
F            -1.447892522         1.660463931        -2.254775011
F            -1.143541186        -1.221771452        -0.952868369
F            -0.143550274        -1.077765309        -3.201081181
F             0.545787596         0.462571398        -0.093545102
F             1.072816134        -2.016687410        -0.017902873
