12
-187.24475565
Al		0.341994995		-0.599413078		1.739301917
Al		2.354938563		-1.790815454		-0.51473149
Al		-0.887340782		-1.82819794		-0.995224336
F		3.504688911		-0.540609593		-1.153968403
F		-1.820172651		-0.519704889		-1.839012821
F		2.701260987		-3.572102277		-0.432712792
F		-1.243765573		-3.604159785		-1.136100669
F		1.926095196		-1.340710932		1.2038318
F		0.838007164		-1.508413282		-1.488370865
F		0.137873951		-1.171989441		3.447487481
F		0.320967379		1.134060566		1.186161672
F		-0.933069069		-1.525212521		0.809841612
