12
-187.24475565
Al		0.319098393		-0.599707158		1.735966539
Al		2.368244165		-1.797030272		-0.500565497
Al		-0.870708181		-1.821598558		-1.005028943
F		3.590279507		-0.673445993		-1.27753598
F		-1.776756054		-0.385211888		-1.696651397
F		2.594531795		-3.601384094		-0.255257443
F		-1.296139566		-3.576921602		-1.33673472
F		2.014220797		-1.117905793		1.182863002
F		0.856598164		-1.508174482		-1.485662465
F		0.224760552		-1.170873563		3.460145089
F		0.065012771		1.130773099		1.148873536
F		-0.849012668		-1.745806183		0.855894014
