12
-187.24475565
Al		0.380155993		-0.598923158		1.744860939
Al		2.332762565		-1.780457472		-0.538341497
Al		-0.915061781		-1.839196958		-0.978883343
F		3.362037907		-0.319215593		-0.94802238
F		-1.892533654		-0.743859888		-2.076281797
F		2.879142995		-3.523299294		-0.728471843
F		-1.156475566		-3.649556802		-0.80171072
F		1.779219197		-1.712052993		1.238779802
F		0.807022164		-1.508811282		-1.492884865
F		-0.006937048		-1.173849563		3.426391489
F		0.747558371		1.139539499		1.248308736
F		-1.073163068		-1.157556583		0.733087614
