12
-187.24475565
Al		0.364891593		-0.599119158		1.742637339
Al		2.341632965		-1.784600672		-0.528897497
Al		-0.903973381		-1.834797358		-0.985419743
F		3.419098307		-0.407773193		-1.03040078
F		-1.863589254		-0.654197888		-1.981374197
F		2.807990195		-3.542820494		-0.610168243
F		-1.191391566		-3.631398002		-0.93546672
F		1.837969597		-1.563516193		1.224800602
F		0.819416164		-1.508652082		-1.491079265
F		0.050987352		-1.173105563		3.434829889
F		0.576921971		1.137347899		1.223449936
F		-1.017125468		-1.304618983		0.763789214
