12
-187.24475565
Al		0.372523795		-0.599021078		1.743749117
Al		2.337197763		-1.782529054		-0.53361949
Al		-0.909517582		-1.83699714		-0.982151536
F		3.390568111		-0.363494393		-0.989211603
F		-1.878061451		-0.699028889		-2.028828021
F		2.843566587		-3.533059877		-0.669319992
F		-1.173933573		-3.640477385		-0.868588669
F		1.808594396		-1.637784532		1.2317902
F		0.813219164		-1.508731682		-1.491982065
F		0.022025151		-1.173477441		3.430610681
F		0.662240179		1.138443766		1.235879272
F		-1.045144269		-1.231087721		0.748438412
