12
-187.24475565
Al		0.334362793		-0.599511158		1.738190139
Al		2.359373765		-1.792887072		-0.510009497
Al		-0.881796581		-1.825998158		-0.998492543
F		3.533219107		-0.584888393		-1.19515758
F		-1.805700454		-0.474873888		-1.791558997
F		2.665684595		-3.581862894		-0.373561043
F		-1.261223566		-3.595080402		-1.20297872
F		1.955470397		-1.266442593		1.196842202
F		0.844204164		-1.508333682		-1.487468065
F		0.166836152		-1.171617563		3.451706689
F		0.235649171		1.132964699		1.173732336
F		-0.905050268		-1.598743783		0.825192414
