12
-187.24475565
Al		0.326730593		-0.599609158		1.737078339
Al		2.363808965		-1.794958672		-0.505287497
Al		-0.876252381		-1.823798358		-1.001760743
F		3.561749307		-0.629167193		-1.23634678
F		-1.791228254		-0.430042888		-1.744105197
F		2.630108195		-3.591623494		-0.314409243
F		-1.278681566		-3.586001002		-1.26985672
F		1.984845597		-1.192174193		1.189852602
F		0.850401164		-1.508254082		-1.486565265
F		0.195798352		-1.171245563		3.455925889
F		0.150330971		1.131868899		1.161302936
F		-0.877031468		-1.672274983		0.840543214
