12
-187.24475565
Al		0.361075493		-0.599168158		1.742081439
Al		2.343850565		-1.785636472		-0.526536497
Al		-0.901201281		-1.833697458		-0.987053843
F		3.433363407		-0.429912593		-1.05099538
F		-1.856353154		-0.631782388		-1.957647297
F		2.790201995		-3.547700794		-0.580592343
F		-1.200120566		-3.626858302		-0.96890572
F		1.852657197		-1.526381993		1.221305802
F		0.822514664		-1.508612282		-1.490627865
F		0.065468452		-1.172919563		3.436939489
F		0.534262871		1.136799999		1.217235236
F		-1.003116068		-1.341384583		0.771464614
