12
-187.24475565
Al		0.376339893		-0.598972158		1.744305039
Al		2.334980165		-1.781493272		-0.535980497
Al		-0.912289681		-1.838097058		-0.980517443
F		3.376303007		-0.341354993		-0.96861698
F		-1.885297554		-0.721444388		-2.052554897
F		2.861354795		-3.528179594		-0.698895943
F		-1.165204566		-3.645017102		-0.83514972
F		1.793906797		-1.674918793		1.235285002
F		0.810120664		-1.508771482		-1.492433465
F		0.007544052		-1.173663563		3.428501089
F		0.704899271		1.138991599		1.242094036
F		-1.059153668		-1.194322183		0.740763014
