12
-187.24475565
Al		0.322914493		-0.599658158		1.736522439
Al		2.366026565		-1.795994472		-0.502926497
Al		-0.873480281		-1.822698458		-1.003394843
F		3.576014407		-0.651306593		-1.25694138
F		-1.783992154		-0.407627388		-1.720378297
F		2.612319995		-3.596503794		-0.284833343
F		-1.287410566		-3.581461302		-1.30329572
F		1.999533197		-1.155039993		1.186357802
F		0.853499664		-1.508214282		-1.486113865
F		0.210279452		-1.171059563		3.458035489
F		0.107671871		1.131320999		1.155088236
F		-0.863022068		-1.709040583		0.848218614
