12
-187.24475565
Al		0.319098395		-0.599707078		1.735966517
Al		2.368244163		-1.797030254		-0.50056549
Al		-0.870708182		-1.82159854		-1.005028936
F		3.590279511		-0.673445993		-1.277536003
F		-1.776756051		-0.385211889		-1.696651421
F		2.594531787		-3.601384077		-0.255257392
F		-1.296139573		-3.576921585		-1.336734669
F		2.014220796		-1.117905732		1.182863
F		0.856598164		-1.508174482		-1.485662465
F		0.224760551		-1.170873441		3.460145081
F		0.065012779		1.130773166		1.148873472
F		-0.849012669		-1.745806121		0.855894012
