12
-187.24475565
Al		0.311466195		-0.599805078		1.734854717
Al		2.372679363		-1.799101854		-0.49584349
Al		-0.865163982		-1.81939874		-1.008297136
F		3.618809711		-0.717724793		-1.318725203
F		-1.762283851		-0.340380889		-1.649197621
F		2.558955387		-3.611144677		-0.196105592
F		-1.313597573		-3.567842185		-1.403612669
F		2.043595996		-1.043637332		1.1758734
F		0.862795164		-1.508094882		-1.484759665
F		0.253722751		-1.170501441		3.464364281
F		-0.020305421		1.129677366		1.136444072
F		-0.820993869		-1.819337321		0.871244812
12
-187.24475565
Al		0.319098395		-0.599707078		1.735966517
Al		2.368244163		-1.797030254		-0.50056549
Al		-0.870708182		-1.82159854		-1.005028936
F		3.590279511		-0.673445993		-1.277536003
F		-1.776756051		-0.385211889		-1.696651421
F		2.594531787		-3.601384077		-0.255257392
F		-1.296139573		-3.576921585		-1.336734669
F		2.014220796		-1.117905732		1.182863
F		0.856598164		-1.508174482		-1.485662465
F		0.224760551		-1.170873441		3.460145081
F		0.065012779		1.130773166		1.148873472
F		-0.849012669		-1.745806121		0.855894012
12
-187.24475565
Al		0.326730595		-0.599609078		1.737078317
Al		2.363808963		-1.794958654		-0.50528749
Al		-0.876252382		-1.82379834		-1.001760736
F		3.561749311		-0.629167193		-1.236346803
F		-1.791228251		-0.430042889		-1.744105221
F		2.630108187		-3.591623477		-0.314409192
F		-1.278681573		-3.586000985		-1.269856669
F		1.984845596		-1.192174132		1.1898526
F		0.850401164		-1.508254082		-1.486565265
F		0.195798351		-1.171245441		3.455925881
F		0.150330979		1.131868966		1.161302872
F		-0.877031469		-1.672274921		0.840543212
12
-187.24475565
Al		0.334362795		-0.599511078		1.738190117
Al		2.359373763		-1.792887054		-0.51000949
Al		-0.881796582		-1.82599814		-0.998492536
F		3.533219111		-0.584888393		-1.195157603
F		-1.805700451		-0.474873889		-1.791559021
F		2.665684587		-3.581862877		-0.373560992
F		-1.261223573		-3.595080385		-1.202978669
F		1.955470396		-1.266442532		1.1968422
F		0.844204164		-1.508333682		-1.487468065
F		0.166836151		-1.171617441		3.451706681
F		0.235649179		1.132964766		1.173732272
F		-0.905050269		-1.598743721		0.825192412
12
-187.24475565
Al		0.341994995		-0.599413078		1.739301917
Al		2.354938563		-1.790815454		-0.51473149
Al		-0.887340782		-1.82819794		-0.995224336
F		3.504688911		-0.540609593		-1.153968403
F		-1.820172651		-0.519704889		-1.839012821
F		2.701260987		-3.572102277		-0.432712792
F		-1.243765573		-3.604159785		-1.136100669
F		1.926095196		-1.340710932		1.2038318
F		0.838007164		-1.508413282		-1.488370865
F		0.137873951		-1.171989441		3.447487481
F		0.320967379		1.134060566		1.186161672
F		-0.933069069		-1.525212521		0.809841612
12
-187.24475565
Al		0.349627195		-0.599315078		1.740413717
Al		2.350503363		-1.788743854		-0.51945349
Al		-0.892884982		-1.83039774		-0.991956136
F		3.476158711		-0.496330793		-1.112779203
F		-1.834644851		-0.564535889		-1.886466621
F		2.736837387		-3.562341677		-0.491864592
F		-1.226307573		-3.613239185		-1.069222669
F		1.896719996		-1.414979332		1.2108214
F		0.831810164		-1.508492882		-1.489273665
F		0.108911751		-1.172361441		3.443268281
F		0.406285579		1.135156366		1.198591072
F		-0.961087869		-1.451681321		0.794490812
12
-187.24475565
Al		0.357259395		-0.599217078		1.741525517
Al		2.346068163		-1.786672254		-0.52417549
Al		-0.898429182		-1.83259754		-0.988687936
F		3.447628511		-0.452051993		-1.071590003
F		-1.849117051		-0.609366889		-1.933920421
F		2.772413787		-3.552581077		-0.551016392
F		-1.208849573		-3.622318585		-1.002344669
F		1.867344796		-1.489247732		1.217811
F		0.825613164		-1.508572482		-1.490176465
F		0.079949551		-1.172733441		3.439049081
F		0.491603779		1.136252166		1.211020472
F		-0.989106669		-1.378150121		0.779140012
12
-187.24475565
Al		0.364891595		-0.599119078		1.742637317
Al		2.341632963		-1.784600654		-0.52889749
Al		-0.903973382		-1.83479734		-0.985419736
F		3.419098311		-0.407773193		-1.030400803
F		-1.863589251		-0.654197889		-1.981374221
F		2.807990187		-3.542820477		-0.610168192
F		-1.191391573		-3.631397985		-0.935466669
F		1.837969596		-1.563516132		1.2248006
F		0.819416164		-1.508652082		-1.491079265
F		0.050987351		-1.173105441		3.434829881
F		0.576921979		1.137347966		1.223449872
F		-1.017125469		-1.304618921		0.763789212
12
-187.24475565
Al		0.372523795		-0.599021078		1.743749117
Al		2.337197763		-1.782529054		-0.53361949
Al		-0.909517582		-1.83699714		-0.982151536
F		3.390568111		-0.363494393		-0.989211603
F		-1.878061451		-0.699028889		-2.028828021
F		2.843566587		-3.533059877		-0.669319992
F		-1.173933573		-3.640477385		-0.868588669
F		1.808594396		-1.637784532		1.2317902
F		0.813219164		-1.508731682		-1.491982065
F		0.022025151		-1.173477441		3.430610681
F		0.662240179		1.138443766		1.235879272
F		-1.045144269		-1.231087721		0.748438412
12
-187.24475565
Al		0.380155995		-0.598923078		1.744860917
Al		2.332762563		-1.780457454		-0.53834149
Al		-0.915061782		-1.83919694		-0.978883336
F		3.362037911		-0.319215593		-0.948022403
F		-1.892533651		-0.743859889		-2.076281821
F		2.879142987		-3.523299277		-0.728471792
F		-1.156475573		-3.649556785		-0.801710669
F		1.779219196		-1.712052932		1.2387798
F		0.807022164		-1.508811282		-1.492884865
F		-0.006937049		-1.173849441		3.426391481
F		0.747558379		1.139539566		1.248308672
F		-1.073163069		-1.157556521		0.733087612
