12
Properties=species:S:1:pos:R:3:forces:R:3 energy=-185.74534910 pbc="F F F"
Al    0.345595393    -0.627221158    1.724335539    -1.137692    0.107257    -0.793947
Al    2.5336091649999997    -1.686079672    -0.253845097    -0.069309    0.893458    2.847524
Al    -0.565496981    -2.116849958    -1.123053543    3.097577    -0.417137    -1.160714
F    3.346851507    -0.47100099300000003    -1.4791591800000001    0.391634    0.788256    -1.613844
F    -1.748143254    -0.576923088    -1.282771397    -1.432728    1.165724    0.481746
F    2.548743395    -3.545061894    -0.648241043    -0.343731    -1.293134    -0.922075
F    -1.6182515659999999    -3.7320164019999997    -1.1024057200000001    -1.007841    -1.03473    0.611924
F    1.903686397    -1.777963593    1.543222802    0.099886    -0.476182    0.433354
F    1.087009564    -1.361810682    -1.3886798649999998    0.039709    -0.129021    -0.058985
F    0.107393352    -1.1860697629999999    3.4837004890000003    0.501833    -0.206883    0.494928
F    0.037525770999999986    1.1179202990000001    1.014377336    -0.082665    0.126304    -0.089721
F    -0.8336494680000001    -0.8636167829999999    0.316392414    -0.056671    0.476088    -0.23019
