12
Properties=species:S:1:pos:R:3:forces:R:3 energy=-187.36206941 pbc="F F F"
Al    1.0513125799999998    0.310292317    2.5681314729999998    0.169496    -0.190146    -0.104948
Al    1.4662994999999999    0.9742411000000001    -0.1822682    -0.158312    0.168462    0.081018
Al    -0.5524267620000001    1.09812025    -2.203935373    0.179275    -0.194951    -0.075843
F    -1.5529709719999998    -0.550114353    -2.294818506    -0.079819    0.059417    0.034986
F    2.0512143529999998    -0.390101353    0.9962921519999999    0.001967    0.001456    -0.04947
F    0.18636503899999998    1.68001089    -3.881528533    -0.055119    0.081201    0.014566
F    -0.27557421000000004    1.998522653    -0.549366749    -0.014533    -0.004287    -0.04273
F    2.5335943569999997    2.506508012    -0.28798734299999995    0.036775    -0.025648    -0.016593
F    1.107807839    0.073340905    -1.810894254    0.030881    -0.012749    0.036566
F    0.385590317    1.673727329    1.417989639    0.013118    -0.01787    0.039547
F    2.6892978690000002    0.450458676    3.566171237    -0.044882    0.076174    0.045024
F    0.142155775    -1.3828372519999999    2.749173171    -0.078849    0.058939    0.037877
