      12
SCF Done            -185.70236609
Al            1.079600480         0.285737317         2.551160873
Al            1.443708000         0.994562200        -0.171321400
Al           -0.522127962         1.072578250        -2.214923973
F            -1.547333772        -0.513611253        -2.283878406
F             2.046989453        -0.386984753         0.969853852
F             0.165262939         1.685744490        -3.858899733
F            -0.283702610         1.983714553        -0.571013449
F             2.529294157         2.489270512        -0.289388243
F             1.120308439         0.068241405        -1.787564254
F             0.390391517         1.652567229         1.434816239
F             2.659594769         0.460418276         3.563207037
F             0.143779875        -1.344362152         2.748171271
