      12
SCF Done            -186.69055640
Al            1.290995680         0.039190917         2.439415273
Al            1.418996800         1.023382200        -0.158258200
Al           -0.310733562         0.826031850        -2.326669573
F            -1.861863372        -0.146780053        -2.117615206
F             2.342971053        -0.345203153         0.839972252
F             0.043638139         1.827594090        -3.794606933
F            -0.362321010         1.673579353        -0.633102249
F             2.448526157         2.583468912        -0.246693043
F             1.438282839         0.099218205        -1.852001854
F             0.333767517         1.331628029         1.438171439
F             2.537969969         0.602267876         3.627499837
F            -0.170750525        -0.977530952         2.914434471
