12
Properties=species:S:1:pos:R:3:forces:R:3 energy=-187.34273380 pbc="F F F"
Al    1.24279768    0.005627717000000004    2.386954873    0.046747    -0.004353    -0.006709
Al    1.5461282    1.0148368    -0.2023938    0.160878    -0.288176    -0.101642
Al    -0.32172556199999996    0.77419065    -2.268417973    0.041022    -0.001539    -0.023755
F    -1.9750209719999998    -0.05485085299999998    -2.078629006    -0.117749    0.093769    0.065301
F    2.462347453    -0.312523753    0.848604652    0.120868    0.039872    0.023441
F    0.056618139000000005    1.81143249    -3.7167527330000003    -0.005949    0.00746    0.003007
F    -0.34161561    1.534932153    -0.544995849    -0.071347    -0.080931    0.061413
F    2.424503957    2.6886491120000002    -0.22125584299999998    -0.030556    0.139468    0.033294
F    1.532101639    0.144452605    -1.919418654    0.086983    0.056517    -0.077382
F    0.284939717    1.2271388289999998    1.319375639    -0.101291    -0.066221    -0.027689
F    2.500910969    0.6106872760000001    3.556460037    -0.005818    0.007395    0.003399
F    -0.275526125    -0.889719752    2.9783626709999997    -0.123789    0.096739    0.047322
