12
Properties=species:S:1:pos:R:3:forces:R:3 energy=-182.50510198 pbc="F F F"
Al    0.263400272    -2.4267894109999997    -1.900631161    -0.132952    -0.390133    -0.106748
Al    1.97967753    -0.614372056    -0.812250724    -1.680111    -2.005353    -1.008613
Al    -0.417062406    0.213029703    -1.667000783    0.040125    -2.419341    -0.263033
F    3.5176444879999997    -0.202982416    -0.152270923    -1.746988    -0.5222    -0.86687
F    -0.239746874    -4.280533793    -2.2678800359999998    -0.743514    -2.930659    -0.684122
F    2.3824357380000003    -1.578527576    -2.263705989    2.248461    2.5522    1.231567
F    2.075844495    0.586874239    -2.15639102    -0.694498    -1.154352    2.013441
F    -1.417391722    1.570166831    -2.142879111    0.858768    -1.116224    0.266358
F    -1.371760186    -1.2734330520000001    -0.704337869    -1.000033    3.004474    0.575342
F    -0.281058874    -0.6084752090000001    -3.055485881    -0.482992    3.134876    -0.545187
F    0.21189829599999999    0.396199898    -0.666806302    1.162726    -0.685954    -2.011552
F    1.224876734    -1.96926141    0.032223527    2.171008    2.532664    1.399418
