      12
SCF Done            -182.50510198
Al            0.242180272        -2.432140411        -1.854643161
Al            1.990637530        -0.611608056        -0.836004724
Al           -0.347834406         0.230488703        -1.817032783
F             3.491904488        -0.209474416        -0.096487923
F            -0.230627874        -4.278232793        -2.287642036
F             2.322682738        -1.642994576        -2.240578989
F             1.472190495         0.574340239        -2.123136020
F            -1.412962722         1.571282831        -2.152476111
F            -1.267208186        -1.052125052        -0.924610869
F            -0.164187874        -0.773939209        -3.315084881
F             0.579844296         0.349287898        -0.189236302
F             1.240836734        -1.915839410         0.104006527
