      12
SCF Done            -177.75148822
Al            0.392528093        -0.871027858         1.469882639
Al            2.486045065        -1.849855272        -0.608373097
Al           -0.995847981        -1.894572358        -1.115620943
F             3.412298407        -0.564363093        -1.078836880
F            -1.781430154        -0.631064588        -1.835468797
F             2.707162995        -3.441387294        -0.490645243
F            -1.201265766        -3.491582702        -1.060032420
F             1.743923297        -1.323413793         1.356006302
F             0.834925164        -1.498407282        -1.511546265
F             0.074929552        -1.241887663         3.682661989
F             0.412604471         1.373213699         1.134231736
F            -0.858409068        -1.356834883         0.976894014
