12
Properties=species:S:1:pos:R:3:forces:R:3 energy=-182.10167492 pbc="F F F"
Al    -1.7378797609999999    2.75903162    -1.227131491    0.272928    -0.314642    0.190366
Al    -0.266968055    0.118704506    -2.625819374    0.838314    1.383641    -0.884937
Al    -2.465594576    -0.32863921799999996    -0.213247137    -1.02399    1.00472    1.158591
F    -0.648213841    3.752656236    -0.04985645699999999    0.148007    0.219406    0.175566
F    -3.1046126469999997    3.204868093    -2.389995292    0.142179    -0.43343    0.049204
F    -1.4055908799999999    -0.9856176269999999    -1.618648761    0.097826    5.168446    1.047496
F    -2.414820462    1.5362269830000002    -0.086089638    1.292045    -0.880844    -2.132933
F    -3.559316463    -1.681666032    0.929146853    -1.788113    -1.921477    1.88062
F    0.975176598    -0.759054941    -4.046591004    1.990754    -1.152611    -2.265963
F    -0.47509342500000007    1.9308936140000001    -2.214568431    -1.783741    -1.506653    1.242155
F    -2.055486157    0.033408451000000006    -2.0219621279999997    0.697753    -0.724506    0.501538
F    -0.6641672679999999    -0.07692496100000001    -0.774483708    -0.88396    -0.842049    -0.961703
