12
Properties=species:S:1:pos:R:3:forces:R:3 energy=-186.23768595 pbc="F F F"
Al    0.014982942999999999    1.462596996    2.109984321    0.603402    1.553569    -0.315249
Al    2.486587296    2.717386625    1.8083507749999999    0.363664    0.301255    0.062915
Al    1.3528774579999998    2.818936381    -0.607489653    0.047573    -0.128997    0.301914
F    0.866891752    3.382670719    2.518158232    -0.081682    0.028956    0.045866
F    -1.512888947    2.3660833429999997    2.870864295    -0.430425    0.431866    0.072385
F    -0.51637166    -0.37742061800000004    1.78609486    -0.485629    -1.873145    -0.10834
F    1.759480169    0.969281385    2.336944634    0.168647    -0.270908    0.027467
F    2.712129942    1.645132072    0.144206546    0.020118    -0.076231    -0.139913
F    1.1266343140000001    3.0214353519999997    -2.401594604    -0.072546    0.00486    -0.235016
F    2.0996924679999998    4.199307587    0.44707886499999994    -0.004187    0.131687    0.030536
F    4.1665447659999995    2.988820011    2.490832568    -0.100759    -0.010076    -0.047101
F    -0.1192416    2.154445768    0.298379305    -0.028176    -0.092836    0.304535
