      12
SCF Done            -167.01655236
Al           -0.077088213         1.617853172         2.154292820
Al            2.503360896         2.560423425         1.737862375
Al            1.351768884         2.692771784        -0.676501654
F             1.033214978         2.974135336         2.934658463
F            -1.578365883         2.669934722         1.853725986
F            -0.426908271         0.141840134         3.316616630
F             1.748426553         0.827868793         1.718657865
F             3.028211745         1.978060653        -0.144934416
F             1.141816209         3.191104533        -2.401675012
F             1.621649294         3.979250587         0.715547667
F             4.089006168         3.025337177         2.488828780
F             0.016867809         1.714599010         0.122974693
