12
Properties=species:S:1:pos:R:3:forces:R:3 energy=-172.98192010 pbc="F F F"
Al    -0.153169657    1.6258583960000002    2.1388618210000003    -3.484788    2.194462    1.004557
Al    2.647027196    2.1483385249999998    1.960790875    -11.223582    -19.128286    0.27076
Al    1.279915358    2.302798381    -0.20971875299999998    11.650288    -8.734206    2.411229
F    0.9937083520000001    3.1497126189999998    2.8557664320000002    -1.42224    1.747407    0.708193
F    -1.449403247    2.599273343    2.180120695    3.708524    -2.610696    -0.111203
F    -0.49743806    0.022671281999999997    2.74238516    0.237494    0.25516    -0.307025
F    1.960838269    1.321050085    1.888782334    14.321225    17.802279    1.300374
F    3.052514742    1.8464965720000002    0.121550346    -8.376729    3.58878    -5.490751
F    0.934880814    3.2783084519999997    -3.067253804    -0.981248    1.41863    -2.081236
F    1.719442868    4.3342353870000006    0.598159765    -0.172659    4.799444    2.42012
F    3.8795859659999996    3.0427899110000003    2.352977868    -2.594299    -1.006975    -1.038339
F    0.0848743    1.8538174680000001    0.12841470500000002    -1.661985    -0.325998    0.91332
