12
Properties=species:S:1:pos:R:3:forces:R:3 energy=-186.45295155 pbc="F F F"
Al    0.38619439299999997    -0.800766658    1.507167339    0.300619    -1.468368    -1.934068
Al    2.059845365    -1.705416072    -0.419377997    -2.465136    0.634462    0.735882
Al    -0.645043181    -1.7401536579999999    -0.8134307430000001    2.13602    0.693548    1.406189
F    3.1953038069999997    -0.8270491929999999    -0.96490058    -0.744793    -1.005228    0.415196
F    -1.599419754    -0.8886263879999999    -1.663404997    0.620438    -0.987692    0.614084
F    2.656050095    -3.146394694    -0.501472943    -0.155224    1.233732    -0.050058
F    -1.1566220660000002    -3.195359802    -1.05691042    0.131978    1.237423    -0.008218
F    1.712378697    -1.3470593929999999    1.002727602    -0.751358    0.300843    -0.928605
F    0.796142664    -1.6045577819999999    -1.235970765    -0.167469    -0.488806    1.192653
F    0.172586852    -1.018597663    2.9926284890000003    0.169954    0.490994    -1.209899
F    0.39252407100000003    0.7904456990000001    1.323441036    -0.052249    -0.963949    0.443629
F    -0.726813768    -1.378385383    0.647381014    0.977219    0.323042    -0.676784
