12
Properties=species:S:1:pos:R:3:forces:R:3 energy=-186.32623898 pbc="F F F"
Al    -0.12320065699999999    1.651741696    2.3523535210000004    0.197232    -0.080953    -0.975328
Al    2.499098896    2.712377425    1.426151175    0.112841    -0.02668    0.201759
Al    1.3707934579999999    2.6849448810000003    -0.7509264529999999    -0.258661    -0.128653    0.141746
F    1.083003252    2.9793547190000003    2.732306732    0.021409    -0.12064    -0.0372
F    -1.6471493469999998    2.759111743    2.1799665950000002    0.093149    -0.072195    0.039592
F    -0.52793416    -0.150199818    2.7884267599999997    0.056623    0.11852    0.044945
F    1.959046169    1.187133985    1.9250211339999999    -0.46479    0.05547    0.137558
F    3.012116942    1.904358872    0.271401746    -0.09027    0.09755    -0.147984
F    1.035277714    3.059158352    -2.5854315039999998    0.071695    0.025166    0.060183
F    1.984227968    3.760754087    1.040566065    -0.087294    -0.035594    -0.223098
F    3.906369666    3.047026411    2.380060268    0.114816    0.064433    0.068411
F    -0.0936817    1.7433034680000001    0.09620040500000002    0.233249    0.103575    0.689416
