      12
SCF Done            -184.99889353
Al            0.272527472        -2.339603111        -1.829871361
Al            2.045492130        -0.538498256        -0.802185624
Al           -0.342970706         0.318223403        -1.804578583
F             3.637606288        -0.177188616        -0.025500523
F            -0.170305474        -4.045538393        -2.232728636
F             2.182261638        -1.958054776        -2.171746089
F             1.538649995         0.821171339        -2.145298420
F            -1.492251422         1.662849031        -2.178406411
F            -1.269007486        -1.302729852        -1.153035769
F            -0.315296974        -1.062201009        -3.219924681
F             0.584939496         0.580641998        -0.078409002
F             1.228551134        -2.198583610        -0.104857173
