12
Properties=species:S:1:pos:R:3:forces:R:3 energy=-187.21482057 pbc="F F F"
Al    1.09274468    0.014669517    2.301917473    0.053378    0.14139    0.042389
Al    1.2510146    1.5225134    -0.019402399999999997    -0.617762    0.320488    0.260522
Al    -0.391041562    0.7435724499999999    -2.113219373    0.031566    0.1521    -0.022495
F    -1.449713572    -0.754850653    -2.258830806    0.12419    -0.314998    -0.050883
F    1.637709853    -0.344659353    0.5619200520000001    -0.157258    -0.184285    -0.079258
F    0.260152139    1.8397218899999999    -3.4755595329999998    0.013691    -0.013745    -0.007769
F    -0.32884421    2.238624953    -0.8203984489999999    0.046127    0.243377    -0.104527
F    2.8918057569999998    2.262878312    -0.448592643    0.367936    -0.01996    -0.126947
F    1.0367024390000001    -0.04941899500000001    -1.226423454    -0.097312    -0.213733    0.099106
F    0.526009917    1.818679629    1.723300839    0.122292    0.205962    0.122109
F    2.5246959689999997    0.727277676    3.2627892370000002    0.014222    -0.014005    -0.00619
F    0.183817275    -1.5573135519999999    2.6018798710000004    0.098924    -0.302591    -0.126055
