      12
SCF Done            -187.21482057
Al            1.278449680         0.053822517         2.446046473
Al            1.205677600         1.272173400        -0.045495400
Al           -0.323279562         0.840663450        -2.320038373
F            -1.574902572        -0.481457653        -2.269304806
F             1.923275853        -0.355572353         0.713911052
F             0.052554139         1.817194890        -3.799320533
F            -0.357414210         2.062100953        -0.836005449
F             2.657551757         2.339685312        -0.357186643
F             1.175036439         0.011995005        -1.512537454
F             0.495121917         1.643295629         1.700793839
F             2.546885969         0.591868676         3.622786237
F             0.116210275        -1.312208552         2.762744871
