      12
SCF Done            -167.74200655
Al            1.278450062         0.053822916         2.446047037
Al            1.205677600         1.272173400        -0.045495400
Al           -0.323279185         0.840663764        -2.320038673
F            -1.574902204        -0.481457344        -2.269306077
F             1.923275792        -0.355572354         0.713911113
F             0.052554984         1.817195654        -3.799320394
F            -0.357414226         2.062100881        -0.836005095
F             2.657551753         2.339685309        -0.357186644
F             1.175036623         0.011995128        -1.512537577
F             0.495122071         1.643295823         1.700793902
F             2.546886730         0.591869419         3.622785809
F             0.116210759        -1.312208059         2.762745186
