12
Properties=species:S:1:pos:R:3:forces:R:3 energy=-186.56122644 pbc="F F F"
Al    -0.42585703799999997    0.8207165599999999    -1.917325736    0.042361    -0.123093    0.000543
Al    -0.289161714    1.334301253    1.1792992359999999    0.010579    0.041444    0.002227
Al    -3.117655719    0.401709089    -1.665498942    -0.056914    0.063961    0.018464
F    -3.723106061    0.056756607999999986    -3.386210308    -0.001555    -0.007846    -0.016724
F    -1.509075157    -0.688233501    -1.6366100449999998    0.074013    0.022363    0.000143
F    -1.949107687    1.9553648030000002    -2.020159783    -0.079218    0.033106    -0.004354
F    -1.9762163249999998    0.936205139    0.5145506240000001    -0.017977    -0.004315    -0.007682
F    0.642193527    1.240189643    -0.462234111    0.006974    0.006123    0.007837
F    -0.020405774999999987    3.0268171969999997    1.697077147    -0.003098    -0.003842    0.000244
F    0.460699715    -0.09446305799999999    2.082410645    0.012807    -0.02959    0.014047
F    -4.301677492    0.40108227    -0.323386765    0.004059    -0.007912    -0.004425
F    0.620988427    0.8241701369999999    -3.404686029    0.007968    0.009601    -0.010319
