      12
SCF Done            -168.72359776
Al           -0.353488638         0.977367760        -1.819798136
Al           -0.449273981         1.095013891         1.280003201
Al           -3.028434303         0.490498078        -1.856852409
F            -3.536617455         0.321135336        -3.597052161
F            -1.413043558        -0.581094304        -1.814334538
F            -1.907144893         2.062181989        -1.919011761
F            -2.042518977         0.761102255         0.455782709
F             0.606409216         1.226517497        -0.296313175
F            -0.258828381         2.766563204         1.956723571
F             0.322775408        -0.344828671         2.079936158
F            -4.295426367         0.298908726        -0.578742513
F             0.766928219         1.140070703        -3.234436244
