      12
SCF Done            -186.35036914
Al           -1.704318861         2.558694020        -1.227272091
Al           -0.566189355         0.002180806        -2.382469574
Al           -2.162046176        -0.340145118        -0.483616437
F            -0.729974941         3.691930836        -0.193429457
F            -3.058716847         3.167351593        -2.271321992
F            -1.378784280        -1.675490827        -1.717749961
F            -2.482040162         1.449009883         0.085888562
F            -3.173651763        -1.305318432         0.666088653
F             0.551516198        -0.513106941        -3.708772704
F            -0.372659725         1.897600514        -2.391381431
F            -2.484682557         0.467822551        -2.271331628
F            -0.268279368         0.166287239        -0.438676808
