12
Properties=species:S:1:pos:R:3:forces:R:3 energy=-186.09196906 pbc="F F F"
Al    -1.8776389610000002    2.4623738200000003    -1.346927491    -0.434227    -0.344794    0.531347
Al    -0.5208624550000001    -0.101548994    -2.416638274    0.054725    -1.008327    -0.094365
Al    -2.256860776    -0.265797118    -0.652300837    0.501442    1.018647    -1.175776
F    -0.836005041    3.447557336    -0.214744057    -0.054958    0.005461    0.065929
F    -3.098186347    3.408933593    -2.3579219919999996    0.010006    0.01466    -0.0545
F    -1.3313472800000001    -1.653672427    -1.6642880610000002    0.410327    0.319566    -0.309017
F    -2.1522736620000003    1.450524983    0.346925162    -0.227252    0.297074    0.480052
F    -3.173913663    -1.203588632    0.593788953    0.058122    0.245268    0.011607
F    0.714695498    -0.516172541    -3.688267104    0.005539    -0.248677    -0.11164
F    -0.11043212499999999    1.727943414    -1.878669931    -0.323433    -0.267025    0.163254
F    -2.703850357    0.321990851    -2.450303828    0.105892    -0.075536    0.359783
F    -0.44045206800000003    0.512360639    -0.542891908    -0.106183    0.043683    0.133325
