      12
SCF Done            -165.09188603
Al           -0.323524438         0.845889960        -1.815898736
Al           -0.451226581         1.089813291         1.281368601
Al           -3.110474903         0.877550078        -1.866804409
F            -3.447813455        -0.073436664        -3.592324561
F            -1.658276158        -0.491734904        -1.941518938
F            -1.719077893         2.249918989        -1.798024761
F            -2.014490177         0.624250655         0.457469309
F             0.578860416         1.351174097        -0.296320775
F            -0.275584181         2.747338404         1.998796571
F             0.339591208        -0.358327271         2.041816558
F            -4.228725367        -0.010878274        -0.576564113
F             0.732431819         1.313896503        -3.235192444
