12
Properties=species:S:1:pos:R:3:forces:R:3 energy=-176.84016086 pbc="F F F"
Al    -0.461906038    1.01949666    -1.433709836    9.628065    2.322398    12.66726
Al    -0.16631241399999996    1.139940453    1.531992136    1.334916    0.302353    0.725677
Al    -2.8463417189999998    0.499978589    -1.6537058420000001    15.706005    3.422953    1.499421
F    -3.613991361    0.290978008    -3.913390308    -3.049976    -0.778437    -6.2541
F    -1.395228957    -0.6760330010000001    -1.868989345    -5.438077    0.504863    -0.062498
F    -2.0084597869999996    2.161441403    -1.923107583    -4.744014    -2.706616    -0.001248
F    -2.253926925    0.665808739    0.328054224    -1.697044    -0.37673    -0.522579
F    0.534400827    1.258465343    -0.19373921099999997    -5.143932    -1.342541    -12.103509
F    -0.318953575    2.5215841969999997    1.894015347    -0.007081    -0.929009    -0.377414
F    0.262163215    -0.167302558    1.9452967449999998    -0.386972    0.828798    -0.410932
F    -4.388038492000001    0.18941556999999998    -0.46740776500000003    -5.114654    -1.034929    3.693402
F    0.999585527    1.291162637    -3.750611329    -1.087235    -0.213105    1.146514
