      12
SCF Done            -176.84016086
Al           -0.108465038         1.091615660        -1.657367836
Al           -0.409299414         1.083089453         1.304537136
Al           -2.688134719         0.532983589        -1.715933842
F            -3.630490361         0.287540008        -3.906687308
F            -1.514703957        -0.603725001        -1.851510345
F            -2.087564787         2.046951403        -1.902065583
F            -2.085041925         0.704293739         0.432201224
F             0.495045827         1.243973343        -0.507650211
F            -0.305766575         2.713889197         1.983349347
F             0.352855215        -0.333619558         2.041470745
F            -4.431435492         0.180657570        -0.434848765
F             0.704506527         1.238036637        -3.192423329
