12
Properties=species:S:1:pos:R:3:forces:R:3 energy=-187.20864999 pbc="F F F"
Al    1.2749111800000001    -0.050167483    2.647905173    -0.027678    -0.342593    0.703511
Al    1.5768491    1.1628534    0.5427915    0.67059    -0.513218    2.400916
Al    -0.17311386199999998    0.87503685    -2.1326829729999996    0.528367    0.139894    0.690886
F    -1.856009072    -0.532409053    -2.211021406    -0.598951    -0.527049    0.029774
F    1.969887453    -0.13799525299999998    0.562757752    -0.202227    0.528833    -0.595461
F    0.090710839    1.93922709    -3.981539433    0.137342    0.386831    -0.593657
F    -0.49740221    1.937028553    -0.928940949    -0.498942    0.08164    -0.502093
F    2.424569957    2.269542712    -0.295244443    0.003961    0.024714    -0.047035
F    1.168867739    -0.0063193949999999985    -1.809750054    -0.24986    -0.208862    -0.633761
F    0.530574217    1.540653529    1.323594439    0.179817    0.083262    -0.797415
F    2.347599169    0.507105276    3.447642037    -0.52277    -0.228928    -0.48386
F    0.238492575    -0.9867038520000001    2.7535571709999997    0.580351    0.575476    -0.171804
