12
-186.56215295
Al		-0.399463438		1.19726946		-1.822600736
Al		-0.444946214		1.060755253		1.281923636
Al		-2.940688419		0.091931089		-1.851820642
F		-3.605113961		0.654400908		-3.606205308
F		-1.131258657		-0.623739401		-1.755452845
F		-2.143118887		1.905448503		-1.975002783
F		-2.051555325		0.795751539		0.454199424
F		0.611777827		1.198862543		-0.293415211
F		-0.324770875		2.731939397		1.983892547
F		0.390628615		-0.351494758		2.056882645
F		-4.318759992		0.40571667		-0.584509465
F		0.759770827		1.187400037		-3.232780429
