12
-186.56215295
Al		-0.353900038		0.98644176		-1.818579536
Al		-0.448714514		1.078190053		1.281590636
Al		-3.042560319		0.563302489		-1.860810742
F		-3.510733661		0.217698408		-3.597876708
F		-1.447469157		-0.544536701		-1.867092445
F		-1.888694287		2.112130803		-1.868815383
F		-2.029316325		0.692850939		0.456161424
F		0.592027327		1.290249443		-0.295158511
F		-0.295258975		2.741178797		1.992834947
F		0.360006115		-0.355594258		2.047843045
F		-4.264739292		0.15575967		-0.579742165
F		0.743367427		1.263297937		-3.234227629
