12
-186.56215295
Al		-0.394400838		1.17384416		-1.822153936
Al		-0.445364914		1.062692453		1.281886636
Al		-2.952007519		0.144305689		-1.852819542
F		-3.594627261		0.605878408		-3.605279908
F		-1.166393157		-0.614939101		-1.767857245
F		-2.114849487		1.928413203		-1.963204183
F		-2.049084325		0.784318139		0.454417424
F		0.609583327		1.209016643		-0.293608911
F		-0.321491775		2.732965997		1.984886147
F		0.387226115		-0.351950258		2.055878245
F		-4.312757692		0.37794367		-0.583979765
F		0.757948227		1.195833137		-3.232941229
