12
-186.56215295
Al		-0.353900038		0.98644176		-1.818579536
Al		-0.448714381		1.078190091		1.281590601
Al		-3.042560303		0.563302478		-1.860811009
F		-3.510733655		0.217698336		-3.597876961
F		-1.447469158		-0.544536704		-1.867092538
F		-1.888694293		2.112130789		-1.868815761
F		-2.029316177		0.692851055		0.456161309
F		0.592027416		1.290249497		-0.295158575
F		-0.295258781		2.741178804		1.992834971
F		0.360006208		-0.355594271		2.047842958
F		-4.264739167		0.155759726		-0.579742313
F		0.743367419		1.263297903		-3.234227644
