12
-186.56215295
Al		-0.374150438		1.08014296		-1.820366736
Al		-0.447039581		1.070441291		1.281738601
Al		-2.997283903		0.353804078		-1.856815409
F		-3.552680455		0.411788336		-3.601578561
F		-1.306931158		-0.579737904		-1.817474938
F		-2.001771893		2.020271989		-1.916009761
F		-2.039200177		0.738584655		0.455289309
F		0.600805416		1.249633097		-0.294383775
F		-0.308375181		2.737072404		1.988860571
F		0.373616208		-0.353772271		2.051860558
F		-4.288748367		0.266851726		-0.581861113
F		0.750657819		1.229565503		-3.233584444
