12
-186.56215295
Al		-0.409588638		1.24412006		-1.823494336
Al		-0.444108814		1.056880853		1.281997636
Al		-2.918050219		-0.012818111		-1.849822842
F		-3.626087361		0.751445908		-3.608056108
F		-1.060989657		-0.641340001		-1.730644045
F		-2.199657687		1.859519103		-1.998599983
F		-2.056497325		0.818618339		0.453763424
F		0.616166827		1.178554343		-0.293027811
F		-0.331329075		2.729886197		1.981905347
F		0.397433615		-0.350583758		2.058891445
F		-4.330764592		0.46126267		-0.585568865
F		0.763416027		1.170533837		-3.232458829
