12
-186.56215295
Al		-0.384275638		1.12699356		-1.821260336
Al		-0.446202181		1.066566891		1.281812601
Al		-2.974645703		0.249054878		-1.854817609
F		-3.573653855		0.508833336		-3.603429361
F		-1.236662158		-0.597338504		-1.792666138
F		-2.058310693		1.974342589		-1.939606761
F		-2.044142177		0.761451455		0.454853309
F		0.605194416		1.229324897		-0.293996375
F		-0.314933381		2.735019204		1.986873371
F		0.380421208		-0.352861271		2.053869358
F		-4.300752967		0.322397726		-0.582920513
F		0.754303019		1.212699303		-3.233262844
