12
-186.56215295
Al		-0.404526038		1.22069476		-1.823047536
Al		-0.444527514		1.058818053		1.281960636
Al		-2.929369319		0.039556489		-1.850821742
F		-3.615600661		0.702923408		-3.607130708
F		-1.096124157		-0.632539701		-1.743048445
F		-2.171388287		1.882483803		-1.986801383
F		-2.054026325		0.807184939		0.453981424
F		0.613972327		1.188708443		-0.293221511
F		-0.328049975		2.730912797		1.982898947
F		0.394031115		-0.351039258		2.057887045
F		-4.324762292		0.43348967		-0.585039165
F		0.761593427		1.178966937		-3.232619629
