12
-186.56215295
Al		-0.318461838		0.82246466		-1.815451936
Al		-0.451645414		1.091750453		1.281331636
Al		-3.121794019		0.929924689		-1.867803042
F		-3.437326761		-0.121959092		-3.591398908
F		-1.693410657		-0.482934601		-1.953923245
F		-1.690808487		2.272883703		-1.786225183
F		-2.012019325		0.612817139		0.457687424
F		0.576665827		1.361328143		-0.296514411
F		-0.272305275		2.748364997		1.999790147
F		0.336188615		-0.358782758		2.040812245
F		-4.222723192		-0.03865133		-0.576034265
F		0.730609227		1.322329637		-3.235353229
