12
-186.56215295
Al		-0.333649638		0.89274056		-1.816792336
Al		-0.450389314		1.085938853		1.281442636
Al		-3.087836719		0.772800889		-1.864806342
F		-3.468786861		0.023608408		-3.594175108
F		-1.588007157		-0.509335501		-1.916710045
F		-1.775616687		2.203989603		-1.821620983
F		-2.019432325		0.647117339		0.457033424
F		0.583249327		1.330865843		-0.295933311
F		-0.282142575		2.745285197		1.996809347
F		0.346396115		-0.357416258		2.043825445
F		-4.240730092		0.04466767		-0.577623365
F		0.736077027		1.297030337		-3.234870829
