      12
SCF Done            -185.74686670
Al            0.274928672        -2.330353111        -1.827686961
Al            2.036859330        -0.540457456        -0.806396824
Al           -0.336739106         0.310932603        -1.802551783
F             3.627615088        -0.179455816        -0.030374523
F            -0.167526674        -4.034833193        -2.230200636
F             2.117272838        -1.841045576        -2.264695289
F             1.531318395         0.689205739        -2.240616820
F            -1.485039422         1.654411031        -2.176060411
F            -1.167876286        -1.280507452        -1.027206969
F            -0.156544174        -1.025446209        -3.218973881
F             0.519986296         0.434144398        -0.048849802
F             1.105940734        -2.096106810        -0.072928373
