12
Properties=species:S:1:pos:R:3:forces:R:3 energy=-185.94095236 pbc="F F F"
Al    -1.822596461    2.4567850200000003    -1.246924291    -0.747044    -0.687012    -0.808189
Al    -0.624544355    0.081204806    -2.470463374    -0.234699    0.071515    0.565411
Al    -2.0031313760000002    -0.42088971799999997    -0.361359037    0.513985    0.223846    -0.256127
F    -1.015639541    3.340427636    0.22243754300000002    0.544332    -0.190828    0.460678
F    -2.7837514469999998    3.1264579930000003    -2.722235392    0.041603    -0.285679    -0.015057
F    -1.46635888    -1.679662827    -1.685073161    -0.064117    -0.027905    -0.063604
F    -2.2862671619999997    1.359466883    0.222642962    -0.014916    -0.033263    0.020999
F    -3.545555963    -0.8891232320000001    0.646933253    -0.572808    0.393266    0.541751
F    0.820313598    -0.362228341    -3.597464504    0.39559    0.590301    -0.52088
F    -0.522671925    1.981422514    -2.611815031    0.024918    -0.025156    -0.022712
F    -2.522905357    0.474476151    -2.133871828    0.043116    0.134349    0.064206
F    -0.053323968    0.118335039    -0.599652008    0.070039    -0.163432    0.033524
