      12
SCF Done            -185.94095236
Al           -1.767154461         2.468066020        -1.307761291
Al           -0.484496355        -0.001100194        -2.325955374
Al           -2.174592376        -0.344975718        -0.471398037
F            -0.681595541         3.408393636        -0.144111457
F            -3.081895447         3.065795993        -2.395079392
F            -1.408867880        -1.667965827        -1.748158161
F            -2.551846162         1.436993883         0.064440962
F            -3.377381963        -1.035609232         0.735548253
F             0.688773598        -0.208288341        -3.726279504
F            -0.324969925         1.890085514        -2.379130031
F            -2.409398357         0.497571151        -2.258423828
F            -0.257612968         0.076769039        -0.375484008
