      12
SCF Done            -166.79468410
Al           -1.767154389         2.468066085        -1.307761206
Al           -0.484496370        -0.001100196        -2.325955356
Al           -2.174592386        -0.344975712        -0.471398049
F            -0.681595480         3.408393711        -0.144111373
F            -3.081895370         3.065796066        -2.395079319
F            -1.408867888        -1.667965837        -1.748158154
F            -2.551846080         1.436993910         0.064440985
F            -3.377382130        -1.035609146         0.735548164
F             0.688773490        -0.208288260        -3.726279000
F            -0.324969293         1.890085522        -2.379129922
F            -2.409398357         0.497571151        -2.258423828
F            -0.257612963         0.076768980        -0.375483988
