      12
SCF Done            -186.30593432
Al           -1.678468861         2.589793220        -1.204369291
Al           -0.546980355         0.001031006        -2.354587374
Al           -2.209793176        -0.337293318        -0.529968437
F            -0.782711541         3.778165636        -0.167697057
F            -2.995641847         3.213123993        -2.289156992
F            -1.366752680        -1.677343427        -1.711516561
F            -2.517364562         1.453883483         0.049521762
F            -3.203916363        -1.392240432         0.558020253
F             0.598859998        -0.618508341        -3.614799504
F            -0.338841925         1.897136714        -2.340990031
F            -2.470056757         0.466639151        -2.319439028
F            -0.317644168         0.186142639        -0.409911208
