12
Properties=species:S:1:pos:R:3:forces:R:3 energy=-186.79567529 pbc="F F F"
Al    0.260133893    -0.47611655799999997    1.680076339    -0.553144    -0.061102    -0.427954
Al    2.298074165    -1.951153572    -0.648664997    0.192326    -0.181728    -0.294917
Al    -0.843104981    -1.7861615579999999    -0.9911119429999999    0.229651    0.415574    0.690833
F    3.567926607    -0.6092625930000001    -0.9530318799999999    0.359397    -0.297263    -0.234223
F    -2.084410954    -0.384331488    -1.374988397    0.02191    0.428624    0.203028
F    3.049816095    -3.620448494    -0.35308664300000003    0.446287    0.018842    -0.287022
F    -0.861296466    -3.635569002    -1.15941532    0.186181    -0.31032    0.345351
F    1.567492897    -1.541513093    0.9457340020000001    -0.120115    -0.044267    -0.070752
F    0.852528564    -1.685275482    -1.818365165    -0.005038    0.00112    0.022571
F    0.07870405199999998    -1.0904019630000001    3.398524289    -0.382191    -0.06418    -0.012714
F    0.403686071    1.307100599    1.348913636    -0.243921    0.016784    -0.025771
F    -1.029964568    -1.395090683    0.788147314    -0.131343    0.077917    0.09157
