12
-186.39349496
Al		-0.079000653		1.639995412		2.15811181
Al		2.524510126		2.605675885		1.764946225
Al		1.357649024		2.662752704		-0.645659944
F		1.000263558		3.094037986		2.833250313
F		-1.576933393		2.687707632		2.173610706
F		-0.490905061		-0.029328936		2.75213387
F		1.807857933		0.867040693		1.933788615
F		2.967927955		1.860064743		-0.073245226
F		1.088116809		3.035172603		-2.393815032
F		1.749103574		4.015003107		0.632029247
F		4.109579278		3.125502497		2.45851712
F		-0.011022331		1.80239341		0.214553863
