12
-186.39349496
Al		-0.079111657		1.639917796		2.158399229
Al		2.524425129		2.605529771		1.76486869
Al		1.357578558		2.662581516		-0.645522173
F		1.000167376		3.094143131		2.833022458
F		-1.576794944		2.688004443		2.173341658
F		-0.49068442		-0.029622403		2.752072634
F		1.807702991		0.866915403		1.93376425
F		2.968213016		1.860376432		-0.073292707
F		1.088168309		3.03520877		-2.393638954
F		1.749236442		4.014996759		0.631926845
F		4.109451309		3.125505989		2.458397714
F		-0.011154225		1.80253581		0.2148153
