12
-186.39349496
Al		-0.079333665		1.639762564		2.158974067
Al		2.524255135		2.605237543		1.76471362
Al		1.357437626		2.66223914		-0.645246631
F		0.999975012		3.094353421		2.832566748
F		-1.576518046		2.688598065		2.172803562
F		-0.490243138		-0.030209337		2.751950162
F		1.807393107		0.866664823		1.93371552
F		2.968783138		1.86099981		-0.073387669
F		1.088271309		3.035281104		-2.393286798
F		1.749502178		4.014984063		0.631722041
F		4.109195371		3.125512973		2.458158902
F		-0.011418013		1.80282061		0.215338174
