12
-186.39349496
Al		-0.079444669		1.639684948		2.159261486
Al		2.524170138		2.605091429		1.764636085
Al		1.35736716		2.662067952		-0.64510886
F		0.99987883		3.094458566		2.832338893
F		-1.576379597		2.688894876		2.172534514
F		-0.490022497		-0.030502804		2.751888926
F		1.807238165		0.866539533		1.933691155
F		2.969068199		1.861311499		-0.07343515
F		1.088322809		3.035317271		-2.39311072
F		1.749635046		4.014977715		0.631619639
F		4.109067402		3.125516465		2.458039496
F		-0.011549907		1.80296301		0.215599611
