12
-186.39349496
Al		-0.080110693		1.639219252		2.160986
Al		2.523660156		2.604214745		1.764170875
Al		1.356944364		2.661040824		-0.644282234
F		0.999301738		3.095089436		2.830971763
F		-1.575548903		2.690675742		2.170920226
F		-0.488698651		-0.032263606		2.75152151
F		1.806308513		0.865787793		1.933544965
F		2.970778565		1.863181633		-0.073720036
F		1.088631809		3.035534273		-2.392054252
F		1.750432254		4.014939627		0.631005227
F		4.108299588		3.125537417		2.45732306
F		-0.012341271		1.80381741		0.217168233
