12
-186.39349496
Al		-0.080221697		1.639141636		2.161273419
Al		2.523575159		2.604068631		1.76409334
Al		1.356873898		2.660869636		-0.644144463
F		0.999205556		3.095194581		2.830743908
F		-1.575410454		2.690972553		2.170651178
F		-0.48847801		-0.032557073		2.751460274
F		1.806153571		0.865662503		1.9335206
F		2.971063626		1.863493322		-0.073767517
F		1.088683309		3.03557044		-2.391878174
F		1.750565122		4.014933279		0.630902825
F		4.108171619		3.125540909		2.457203654
F		-0.012473165		1.80395981		0.21742967
