12
-186.39349496
Al		-0.080665713		1.638831172		2.162423095
Al		2.523235171		2.603484175		1.7637832
Al		1.356592034		2.660184884		-0.643593379
F		0.998820828		3.095615161		2.829832488
F		-1.574856658		2.692159797		2.169574986
F		-0.487595446		-0.033730941		2.75121533
F		1.805533803		0.865161343		1.93342314
F		2.97220387		1.864740078		-0.073957441
F		1.088889309		3.035715108		-2.391173862
F		1.751096594		4.014907887		0.630493217
F		4.107659743		3.125554877		2.45672603
F		-0.013000741		1.80452941		0.218475418
