12
-186.39349496
Al		-0.080887721		1.63867594		2.162997933
Al		2.523065177		2.603191947		1.76362813
Al		1.356451102		2.659842508		-0.643317837
F		0.998628464		3.095825451		2.829376778
F		-1.57457976		2.692753419		2.16903689
F		-0.487154164		-0.034317875		2.751092858
F		1.805223919		0.864910763		1.93337441
F		2.972773992		1.865363456		-0.074052403
F		1.088992309		3.035787442		-2.390821706
F		1.75136233		4.014895191		0.630288413
F		4.107403805		3.125561861		2.456487218
F		-0.013264529		1.80481421		0.218998292
