12
-186.39349496
Al		-0.080998725		1.638598324		2.163285352
Al		2.52298018		2.603045833		1.763550595
Al		1.356380636		2.65967132		-0.643180066
F		0.998532282		3.095930596		2.829148923
F		-1.574441311		2.69305023		2.168767842
F		-0.486933523		-0.034611342		2.751031622
F		1.805068977		0.864785473		1.933350045
F		2.973059053		1.865675145		-0.074099884
F		1.089043809		3.035823609		-2.390645628
F		1.751495198		4.014888843		0.630186011
F		4.107275836		3.125565353		2.456367812
F		-0.013396423		1.80495661		0.219259729
