12
-186.39349496
Al		-0.081553745		1.638210244		2.164722447
Al		2.522555195		2.602315263		1.76316292
Al		1.356028306		2.65881538		-0.642491211
F		0.998051372		3.096456321		2.828009648
F		-1.573749066		2.694534285		2.167422602
F		-0.485830318		-0.036078677		2.750725442
F		1.804294267		0.864159023		1.93322822
F		2.974484358		1.86723359		-0.074337289
F		1.089301309		3.036004444		-2.389765238
F		1.752159538		4.014857103		0.629674001
F		4.106635991		3.125582813		2.455770782
F		-0.014055893		1.80566861		0.220566914
