12
-186.39349496
Al		-0.081886757		1.637977396		2.165584704
Al		2.522300204		2.601876921		1.762930315
Al		1.355816908		2.658301816		-0.642077898
F		0.997762826		3.096771756		2.827326083
F		-1.573333719		2.695424718		2.166615458
F		-0.485168395		-0.036959078		2.750541734
F		1.803829441		0.863783153		1.933155125
F		2.975339541		1.868168657		-0.074479732
F		1.089455809		3.036112945		-2.389237004
F		1.752558142		4.014838059		0.629366795
F		4.106252084		3.125593289		2.455412564
F		-0.014451575		1.80609581		0.221351225
