12
-186.39349496
Al		-0.082552781		1.6375117		2.167309218
Al		2.521790222		2.601000237		1.762465105
Al		1.355394112		2.657274688		-0.641251272
F		0.997185734		3.097402626		2.825958953
F		-1.572503025		2.697205584		2.16500117
F		-0.483844549		-0.03871988		2.750174318
F		1.802899789		0.863031413		1.933008935
F		2.977049907		1.870038791		-0.074764618
F		1.089764809		3.036329947		-2.388180536
F		1.75335535		4.014799971		0.628752383
F		4.10548427		3.125614241		2.454696128
F		-0.015242939		1.80695021		0.222919847
