12
-186.39349496
Al		-0.082663785		1.637434084		2.167596637
Al		2.521705225		2.600854123		1.76238757
Al		1.355323646		2.6571035		-0.641113501
F		0.997089552		3.097507771		2.825731098
F		-1.572364576		2.697502395		2.164732122
F		-0.483623908		-0.039013347		2.750113082
F		1.802744847		0.862906123		1.93298457
F		2.977334968		1.87035048		-0.074812099
F		1.089816309		3.036366114		-2.388004458
F		1.753488218		4.014793623		0.628649981
F		4.105356301		3.125617733		2.454576722
F		-0.015374833		1.80709261		0.223181284
