12
-186.39349496
Al		-0.083329809		1.636968388		2.169321151
Al		2.521195243		2.599977439		1.76192236
Al		1.35490085		2.656076372		-0.640286875
F		0.99651246		3.098138641		2.824363968
F		-1.571533882		2.699283261		2.163117834
F		-0.482300062		-0.040774149		2.749745666
F		1.801815195		0.862154383		1.93283838
F		2.979045334		1.872220614		-0.075096985
F		1.090125309		3.036583116		-2.38694799
F		1.754285426		4.014755535		0.628035569
F		4.104588487		3.125638685		2.453860286
F		-0.016166197		1.80794701		0.224749906
