12
-186.39349496
Al		-0.083995833		1.636502692		2.171045665
Al		2.520685261		2.599100755		1.76145715
Al		1.354478054		2.655049244		-0.639460249
F		0.995935368		3.098769511		2.822996838
F		-1.570703188		2.701064127		2.161503546
F		-0.480976216		-0.042534951		2.74937825
F		1.800885543		0.861402643		1.93269219
F		2.9807557		1.874090748		-0.075381871
F		1.090434309		3.036800118		-2.385891522
F		1.755082634		4.014717447		0.627421157
F		4.103820673		3.125659637		2.45314385
F		-0.016957561		1.80880141		0.226318528
