12
-186.39349496
Al		-0.084328845		1.636269844		2.171907922
Al		2.52043027		2.598662413		1.761224545
Al		1.354266656		2.65453568		-0.639046936
F		0.995646822		3.099084946		2.822313273
F		-1.570287841		2.70195456		2.160696402
F		-0.480314293		-0.043415352		2.749194542
F		1.800420717		0.861026773		1.932619095
F		2.981610883		1.875025815		-0.075524314
F		1.090588809		3.036908619		-2.385363288
F		1.755481238		4.014698403		0.627113951
F		4.103436766		3.125670113		2.452785632
F		-0.017353243		1.80922861		0.227102839
