12
-186.39349496
Al		-0.078556637		1.640305876		2.156962134
Al		2.524850114		2.606260341		1.765256365
Al		1.357930888		2.663437456		-0.646211028
F		1.000648286		3.093617406		2.834161733
F		-1.577487189		2.686520388		2.174686898
F		-0.491787625		-0.028155068		2.752378814
F		1.808477701		0.867541853		1.933886075
F		2.966787711		1.858817987		-0.073055302
F		1.087910809		3.035027935		-2.394519344
F		1.748572102		4.015028499		0.632438855
F		4.110091154		3.125488529		2.458994744
F		-0.010494755		1.80182381		0.213508115
