12
-186.39349496
Al		-0.084550853		1.636114612		2.17248276
Al		2.520260276		2.598370185		1.761069475
Al		1.354125724		2.654193304		-0.638771394
F		0.995454458		3.099295236		2.821857563
F		-1.570010943		2.702548182		2.160158306
F		-0.479873011		-0.044002286		2.74907207
F		1.800110833		0.860776193		1.932570365
F		2.982181005		1.875649193		-0.075619276
F		1.090691809		3.036980953		-2.385011132
F		1.755746974		4.014685707		0.626909147
F		4.103180828		3.125677097		2.45254682
F		-0.017617031		1.80951341		0.227625713
