12
-186.39349496
Al		-0.084661857		1.636036996		2.172770179
Al		2.520175279		2.598224071		1.76099194
Al		1.354055258		2.654022116		-0.638633623
F		0.995358276		3.099400381		2.821629708
F		-1.569872494		2.702844993		2.159889258
F		-0.47965237		-0.044295753		2.749010834
F		1.799955891		0.860650903		1.932546
F		2.982466066		1.875960882		-0.075666757
F		1.090743309		3.03701712		-2.384835054
F		1.755879842		4.014679359		0.626806745
F		4.103052859		3.125680589		2.452427414
F		-0.017748925		1.80965581		0.22788715
