12
-186.39349496
Al		-0.084772861		1.63595938		2.173057598
Al		2.520090282		2.598077957		1.760914405
Al		1.353984792		2.653850928		-0.638495852
F		0.995262094		3.099505526		2.821401853
F		-1.569734045		2.703141804		2.15962021
F		-0.479431729		-0.04458922		2.748949598
F		1.799800949		0.860525613		1.932521635
F		2.982751127		1.876272571		-0.075714238
F		1.090794809		3.037053287		-2.384658976
F		1.75601271		4.014673011		0.626704343
F		4.10292489		3.125684081		2.452308008
F		-0.017880819		1.80979821		0.228148587
