12
-186.39349496
Al		-0.084994869		1.635804148		2.173632436
Al		2.519920288		2.597785729		1.760759335
Al		1.35384386		2.653508552		-0.63822031
F		0.99506973		3.099715816		2.820946143
F		-1.569457147		2.703735426		2.159082114
F		-0.478990447		-0.045176154		2.748827126
F		1.799491065		0.860275033		1.932472905
F		2.983321249		1.876895949		-0.0758092
F		1.090897809		3.037125621		-2.38430682
F		1.756278446		4.014660315		0.626499539
F		4.102668952		3.125691065		2.452069196
F		-0.018144607		1.81008301		0.228671461
