12
-186.39349496
Al		-0.085216877		1.635648916		2.174207274
Al		2.519750294		2.597493501		1.760604265
Al		1.353702928		2.653166176		-0.637944768
F		0.994877366		3.099926106		2.820490433
F		-1.569180249		2.704329048		2.158544018
F		-0.478549165		-0.045763088		2.748704654
F		1.799181181		0.860024453		1.932424175
F		2.983891371		1.877519327		-0.075904162
F		1.091000809		3.037197955		-2.383954664
F		1.756544182		4.014647619		0.626294735
F		4.102413014		3.125698049		2.451830384
F		-0.018408395		1.81036781		0.229194335
