12
-186.39349496
Al		-0.085438885		1.635493684		2.174782112
Al		2.5195803		2.597201273		1.760449195
Al		1.353561996		2.6528238		-0.637669226
F		0.994685002		3.100136396		2.820034723
F		-1.568903351		2.70492267		2.158005922
F		-0.478107883		-0.046350022		2.748582182
F		1.798871297		0.859773873		1.932375445
F		2.984461493		1.878142705		-0.075999124
F		1.091103809		3.037270289		-2.383602508
F		1.756809918		4.014634923		0.626089931
F		4.102157076		3.125705033		2.451591572
F		-0.018672183		1.81065261		0.229717209
