12
-186.39349496
Al		-0.085549889		1.635416068		2.175069531
Al		2.519495303		2.597055159		1.76037166
Al		1.35349153		2.652652612		-0.637531455
F		0.99458882		3.100241541		2.819806868
F		-1.568764902		2.705219481		2.157736874
F		-0.477887242		-0.046643489		2.748520946
F		1.798716355		0.859648583		1.93235108
F		2.984746554		1.878454394		-0.076046605
F		1.091155309		3.037306456		-2.38342643
F		1.756942786		4.014628575		0.625987529
F		4.102029107		3.125708525		2.451472166
F		-0.018804077		1.81079501		0.229978646
