12
-186.39349496
Al		-0.078667641		1.64022826		2.157249553
Al		2.524765117		2.606114227		1.76517883
Al		1.357860422		2.663266268		-0.646073257
F		1.000552104		3.093722551		2.833933878
F		-1.57734874		2.686817199		2.17441785
F		-0.491566984		-0.028448535		2.752317578
F		1.808322759		0.867416563		1.93386171
F		2.967072772		1.859129676		-0.073102783
F		1.087962309		3.035064102		-2.394343266
F		1.74870497		4.015022151		0.632336453
F		4.109963185		3.125492021		2.458875338
F		-0.010626649		1.80196621		0.213769552
