12
-186.39349496
Al		-0.086104909		1.635027988		2.176506626
Al		2.519070318		2.596324589		1.759983985
Al		1.3531392		2.651796672		-0.6368426
F		0.99410791		3.100767266		2.818667593
F		-1.568072657		2.706703536		2.156391634
F		-0.476784037		-0.048110824		2.748214766
F		1.797941645		0.859022133		1.932229255
F		2.986171859		1.880012839		-0.07628401
F		1.091412809		3.037487291		-2.38254604
F		1.757607126		4.014596835		0.625475519
F		4.101389262		3.125725985		2.450875136
F		-0.019463547		1.81150701		0.231285831
