12
-186.39349496
Al		-0.086548925		1.634717524		2.177656302
Al		2.51873033		2.595740133		1.759673845
Al		1.352857336		2.65111192		-0.636291516
F		0.993723182		3.101187846		2.817756173
F		-1.567518861		2.70789078		2.155315442
F		-0.475901473		-0.049284692		2.747969822
F		1.797321877		0.858520973		1.932131795
F		2.987312103		1.881259595		-0.076473934
F		1.091618809		3.037631959		-2.381841728
F		1.758138598		4.014571443		0.625065911
F		4.100877386		3.125739953		2.450397512
F		-0.019991123		1.81207661		0.232331579
