12
-186.39349496
Al		-0.078778645		1.640150644		2.157536972
Al		2.52468012		2.605968113		1.765101295
Al		1.357789956		2.66309508		-0.645935486
F		1.000455922		3.093827696		2.833706023
F		-1.577210291		2.68711401		2.174148802
F		-0.491346343		-0.028742002		2.752256342
F		1.808167817		0.867291273		1.933837345
F		2.967357833		1.859441365		-0.073150264
F		1.088013809		3.035100269		-2.394167188
F		1.748837838		4.015015803		0.632234051
F		4.109835216		3.125495513		2.458755932
F		-0.010758543		1.80210861		0.214030989
