12
-186.39349496
Al		-0.087214949		1.634251828		2.179380816
Al		2.518220348		2.594863449		1.759208635
Al		1.35243454		2.650084792		-0.63546489
F		0.99314609		3.101818716		2.816389043
F		-1.566688167		2.709671646		2.153701154
F		-0.474577627		-0.051045494		2.747602406
F		1.796392225		0.857769233		1.931985605
F		2.989022469		1.883129729		-0.07675882
F		1.091927809		3.037848961		-2.38078526
F		1.758935806		4.014533355		0.624451499
F		4.100109572		3.125760905		2.449681076
F		-0.020782487		1.81293101		0.233900201
