12
-186.39349496
Al		-0.087436957		1.634096596		2.179955654
Al		2.518050354		2.594571221		1.759053565
Al		1.352293608		2.649742416		-0.635189348
F		0.992953726		3.102029006		2.815933333
F		-1.566411269		2.710265268		2.153163058
F		-0.474136345		-0.051632428		2.747479934
F		1.796082341		0.857518653		1.931936875
F		2.989592591		1.883753107		-0.076853782
F		1.092030809		3.037921295		-2.380433104
F		1.759201542		4.014520659		0.624246695
F		4.099853634		3.125767889		2.449442264
F		-0.021046275		1.81321581		0.234423075
