12
-186.39349496
Al		-0.087880973		1.633786132		2.18110533
Al		2.517710366		2.593986765		1.758743425
Al		1.352011744		2.649057664		-0.634638264
F		0.992568998		3.102449586		2.815021913
F		-1.565857473		2.711452512		2.152086866
F		-0.473253781		-0.052806296		2.74723499
F		1.795462573		0.857017493		1.931839415
F		2.990732835		1.884999863		-0.077043706
F		1.092236809		3.038065963		-2.379728792
F		1.759733014		4.014495267		0.623837087
F		4.099341758		3.125781857		2.44896464
F		-0.021573851		1.81378541		0.235468823
