12
-186.39349496
Al		-0.088213985		1.633553284		2.181967587
Al		2.517455375		2.593548423		1.75851082
Al		1.351800346		2.6485441		-0.634224951
F		0.992280452		3.102765021		2.814338348
F		-1.565442126		2.712342945		2.151279722
F		-0.472591858		-0.053686697		2.747051282
F		1.794997747		0.856641623		1.93176632
F		2.991588018		1.88593493		-0.077186149
F		1.092391309		3.038174464		-2.379200558
F		1.760131618		4.014476223		0.623529881
F		4.098957851		3.125792333		2.448606422
F		-0.021969533		1.81421261		0.236253134
