12
-186.39349496
Al		-0.088324989		1.633475668		2.182255006
Al		2.517370378		2.593402309		1.758433285
Al		1.35172988		2.648372912		-0.63408718
F		0.99218427		3.102870166		2.814110493
F		-1.565303677		2.712639756		2.151010674
F		-0.472371217		-0.053980164		2.746990046
F		1.794842805		0.856516333		1.931741955
F		2.991873079		1.886246619		-0.07723363
F		1.092442809		3.038210631		-2.37902448
F		1.760264486		4.014469875		0.623427479
F		4.098829882		3.125795825		2.448487016
F		-0.022101427		1.81435501		0.236514571
