12
-186.39349496
Al		-0.088546997		1.633320436		2.182829844
Al		2.517200384		2.593110081		1.758278215
Al		1.351588948		2.648030536		-0.633811638
F		0.991991906		3.103080456		2.813654783
F		-1.565026779		2.713233378		2.150472578
F		-0.471929935		-0.054567098		2.746867574
F		1.794532921		0.856265753		1.931693225
F		2.992443201		1.886869997		-0.077328592
F		1.092545809		3.038282965		-2.378672324
F		1.760530222		4.014457179		0.623222675
F		4.098573944		3.125802809		2.448248204
F		-0.022365215		1.81463981		0.237037445
