12
-186.39349496
Al		-0.077779609		1.640849188		2.154950201
Al		2.525445093		2.607283139		1.76579911
Al		1.35842415		2.664635772		-0.647175425
F		1.00132156		3.092881391		2.835756718
F		-1.578456332		2.684442711		2.176570234
F		-0.493332112		-0.026100799		2.752807466
F		1.809562295		0.868418883		1.93405663
F		2.964792284		1.856636164		-0.072722935
F		1.087550309		3.034774766		-2.39575189
F		1.747642026		4.015072935		0.633155669
F		4.110986937		3.125464085		2.459830586
F		-0.009571497		1.80082701		0.211678056
