12
-186.39349496
Al		-0.076780573		1.641547732		2.15236343
Al		2.526210066		2.608598165		1.766496925
Al		1.359058344		2.666176464		-0.648415364
F		1.002187198		3.091935086		2.837807413
F		-1.579702373		2.681771412		2.178991666
F		-0.495317881		-0.023459596		2.75335859
F		1.810956773		0.869546493		1.934275915
F		2.962226735		1.853830963		-0.072295606
F		1.087086809		3.034449263		-2.397336592
F		1.746446214		4.015130067		0.634077287
F		4.112138658		3.125432657		2.46090524
F		-0.008384451		1.79954541		0.209325123
