12
-186.39349496
Al		-0.076447561		1.64178058		2.151501173
Al		2.526465057		2.609036507		1.76672953
Al		1.359269742		2.666690028		-0.648828677
F		1.002475744		3.091619651		2.838490978
F		-1.58011772		2.680880979		2.17979881
F		-0.495979804		-0.022579195		2.753542298
F		1.811421599		0.869922363		1.93434901
F		2.961371552		1.852895896		-0.072153163
F		1.086932309		3.034340762		-2.397864826
F		1.74604761		4.015149111		0.634384493
F		4.112522565		3.125422181		2.461263458
F		-0.007988769		1.79911821		0.208540812
