12
-186.39349496
Al		-0.076003545		1.642091044		2.150351497
Al		2.526805045		2.609620963		1.76703967
Al		1.359551606		2.66737478		-0.649379761
F		1.002860472		3.091199071		2.839402398
F		-1.580671516		2.679693735		2.180875002
F		-0.496862368		-0.021405327		2.753787242
F		1.812041367		0.870423523		1.93444647
F		2.960231308		1.85164914		-0.071963239
F		1.086726309		3.034196094		-2.398569138
F		1.745516138		4.015174503		0.634794101
F		4.113034441		3.125408213		2.461741082
F		-0.007461193		1.79854861		0.207495064
