12
-186.39349496
Al		-0.075892541		1.64216866		2.150064078
Al		2.526890042		2.609767077		1.767117205
Al		1.359622072		2.667545968		-0.649517532
F		1.002956654		3.091093926		2.839630253
F		-1.580809965		2.679396924		2.18114405
F		-0.497083009		-0.02111186		2.753848478
F		1.812196309		0.870548813		1.934470835
F		2.959946247		1.851337451		-0.071915758
F		1.086674809		3.034159927		-2.398745216
F		1.74538327		4.015180851		0.634896503
F		4.11316241		3.125404721		2.461860488
F		-0.007329299		1.79840621		0.207233627
