12
-186.39349496
Al		-0.075670533		1.642323892		2.14948924
Al		2.527060036		2.610059305		1.767272275
Al		1.359763004		2.667888344		-0.649793074
F		1.003149018		3.090883636		2.840085963
F		-1.581086863		2.678803302		2.181682146
F		-0.497524291		-0.020524926		2.75397095
F		1.812506193		0.870799393		1.934519565
F		2.959376125		1.850714073		-0.071820796
F		1.086571809		3.034087593		-2.399097372
F		1.745117534		4.015193547		0.635101307
F		4.113418348		3.125397737		2.4620993
F		-0.007065511		1.79812141		0.206710753
