12
-186.39349496
Al		-0.075448525		1.642479124		2.148914402
Al		2.52723003		2.610351533		1.767427345
Al		1.359903936		2.66823072		-0.650068616
F		1.003341382		3.090673346		2.840541673
F		-1.581363761		2.67820968		2.182220242
F		-0.497965573		-0.019937992		2.754093422
F		1.812816077		0.871049973		1.934568295
F		2.958806003		1.850090695		-0.071725834
F		1.086468809		3.034015259		-2.399449528
F		1.744851798		4.015206243		0.635306111
F		4.113674286		3.125390753		2.462338112
F		-0.006801723		1.79783661		0.206187879
