12
-186.39349496
Al		-0.075337521		1.64255674		2.148626983
Al		2.527315027		2.610497647		1.76750488
Al		1.359974402		2.668401908		-0.650206387
F		1.003437564		3.090568201		2.840769528
F		-1.58150221		2.677912869		2.18248929
F		-0.498186214		-0.019644525		2.754154658
F		1.812971019		0.871175263		1.93459266
F		2.958520942		1.849779006		-0.071678353
F		1.086417309		3.033979092		-2.399625606
F		1.74471893		4.015212591		0.635408513
F		4.113802255		3.125387261		2.462457518
F		-0.006669829		1.79769421		0.205926442
