12
-186.39349496
Al		-0.074227481		1.6433329		2.145752793
Al		2.528164997		2.611958787		1.76828023
Al		1.360679062		2.670113788		-0.651584097
F		1.004399384		3.089516751		2.843048078
F		-1.5828867		2.674944759		2.18517977
F		-0.500392624		-0.016709855		2.754767018
F		1.814520439		0.872428163		1.93483631
F		2.955670332		1.846662116		-0.071203543
F		1.085902309		3.033617422		-2.401386386
F		1.74339025		4.015276071		0.636432533
F		4.115081945		3.125352341		2.463651578
F		-0.005350889		1.79627021		0.203312072
