12
-186.39349496
Al		-0.074116477		1.643410516		2.145465374
Al		2.528249994		2.612104901		1.768357765
Al		1.360749528		2.670284976		-0.651721868
F		1.004495566		3.089411606		2.843275933
F		-1.583025149		2.674647948		2.185448818
F		-0.500613265		-0.016416388		2.754828254
F		1.814675381		0.872553453		1.934860675
F		2.955385271		1.846350427		-0.071156062
F		1.085850809		3.033581255		-2.401562464
F		1.743257382		4.015282419		0.636534935
F		4.115209914		3.125348849		2.463770984
F		-0.005218995		1.79612781		0.203050635
