12
-186.39349496
Al		-0.074005473		1.643488132		2.145177955
Al		2.528334991		2.612251015		1.7684353
Al		1.360819994		2.670456164		-0.651859639
F		1.004591748		3.089306461		2.843503788
F		-1.583163598		2.674351137		2.185717866
F		-0.500833906		-0.016122921		2.75488949
F		1.814830323		0.872678743		1.93488504
F		2.95510021		1.846038738		-0.071108581
F		1.085799309		3.033545088		-2.401738542
F		1.743124514		4.015288767		0.636637337
F		4.115337883		3.125345357		2.46389039
F		-0.005087101		1.79598541		0.202789198
