12
-186.39349496
Al		-0.073894469		1.643565748		2.144890536
Al		2.528419988		2.612397129		1.768512835
Al		1.36089046		2.670627352		-0.65199741
F		1.00468793		3.089201316		2.843731643
F		-1.583302047		2.674054326		2.185986914
F		-0.501054547		-0.015829454		2.754950726
F		1.814985265		0.872804033		1.934909405
F		2.954815149		1.845727049		-0.0710611
F		1.085747809		3.033508921		-2.40191462
F		1.742991646		4.015295115		0.636739739
F		4.115465852		3.125341865		2.464009796
F		-0.004955207		1.79584301		0.202527761
