12
-186.39349496
Al		-0.073783465		1.643643364		2.144603117
Al		2.528504985		2.612543243		1.76859037
Al		1.360960926		2.67079854		-0.652135181
F		1.004784112		3.089096171		2.843959498
F		-1.583440496		2.673757515		2.186255962
F		-0.501275188		-0.015535987		2.755011962
F		1.815140207		0.872929323		1.93493377
F		2.954530088		1.84541536		-0.071013619
F		1.085696309		3.033472754		-2.402090698
F		1.742858778		4.015301463		0.636842141
F		4.115593821		3.125338373		2.464129202
F		-0.004823313		1.79570061		0.202266324
