12
-186.39349496
Al		-0.077446597		1.641082036		2.154087944
Al		2.525700084		2.607721481		1.766031715
Al		1.358635548		2.665149336		-0.647588738
F		1.001610106		3.092565956		2.836440283
F		-1.578871679		2.683552278		2.177377378
F		-0.493994035		-0.025220398		2.752991174
F		1.810027121		0.868794753		1.934129725
F		2.963937101		1.855701097		-0.072580492
F		1.087395809		3.034666265		-2.396280124
F		1.747243422		4.015091979		0.633462875
F		4.111370844		3.125453609		2.460188804
F		-0.009175815		1.80039981		0.210893745
