12
-186.39349496
Al		-0.073450453		1.643876212		2.14374086
Al		2.528759976		2.612981585		1.768822975
Al		1.361172324		2.671312104		-0.652548494
F		1.005072658		3.088780736		2.844643063
F		-1.583855843		2.672867082		2.187063106
F		-0.501937111		-0.014655586		2.75519567
F		1.815605033		0.873305193		1.935006865
F		2.953674905		1.844480293		-0.070871176
F		1.085541809		3.033364253		-2.402618932
F		1.742460174		4.015320507		0.637149347
F		4.115977728		3.125327897		2.46448742
F		-0.004427631		1.79527341		0.201482013
