12
-186.39349496
Al		-0.073228445		1.644031444		2.143166022
Al		2.52892997		2.613273813		1.768978045
Al		1.361313256		2.67165448		-0.652824036
F		1.005265022		3.088570446		2.845098773
F		-1.584132741		2.67227346		2.187601202
F		-0.502378393		-0.014068652		2.755318142
F		1.815914917		0.873555773		1.935055595
F		2.953104783		1.843856915		-0.070776214
F		1.085438809		3.033291919		-2.402971088
F		1.742194438		4.015333203		0.637354151
F		4.116233666		3.125320913		2.464726232
F		-0.004163843		1.79498861		0.200959139
