12
-186.39349496
Al		-0.073117441		1.64410906		2.142878603
Al		2.529014967		2.613419927		1.76905558
Al		1.361383722		2.671825668		-0.652961807
F		1.005361204		3.088465301		2.845326628
F		-1.58427119		2.671976649		2.18787025
F		-0.502599034		-0.013775185		2.755379378
F		1.816069859		0.873681063		1.93507996
F		2.952819722		1.843545226		-0.070728733
F		1.085387309		3.033255752		-2.403147166
F		1.74206157		4.015339551		0.637456553
F		4.116361635		3.125317421		2.464845638
F		-0.004031949		1.79484621		0.200697702
