12
-186.39349496
Al		-0.072784429		1.644341908		2.142016346
Al		2.529269958		2.613858269		1.769288185
Al		1.36159512		2.672339232		-0.65337512
F		1.00564975		3.088149866		2.846010193
F		-1.584686537		2.671086216		2.188677394
F		-0.503260957		-0.012894784		2.755563086
F		1.816534685		0.874056933		1.935153055
F		2.951964539		1.842610159		-0.07058629
F		1.085232809		3.033147251		-2.4036754
F		1.741662966		4.015358595		0.637763759
F		4.116745542		3.125306945		2.465203856
F		-0.003636267		1.79441901		0.199913391
