12
-186.39349496
Al		-0.072118405		1.644807604		2.140291832
Al		2.52977994		2.614734953		1.769753395
Al		1.362017916		2.67336636		-0.654201746
F		1.006226842		3.087518996		2.847377323
F		-1.585517231		2.66930535		2.190291682
F		-0.504584803		-0.011133982		2.755930502
F		1.817464337		0.874808673		1.935299245
F		2.950254173		1.840740025		-0.070301404
F		1.084923809		3.032930249		-2.404731868
F		1.740865758		4.015396683		0.638378171
F		4.117513356		3.125285993		2.465920292
F		-0.002844903		1.79356461		0.198344769
