12
-186.39349496
Al		-0.072007401		1.64488522		2.140004413
Al		2.529864937		2.614881067		1.76983093
Al		1.362088382		2.673537548		-0.654339517
F		1.006323024		3.087413851		2.847605178
F		-1.58565568		2.669008539		2.19056073
F		-0.504805444		-0.010840515		2.755991738
F		1.817619279		0.874933963		1.93532361
F		2.949969112		1.840428336		-0.070253923
F		1.084872309		3.032894082		-2.404907946
F		1.74073289		4.015403031		0.638480573
F		4.117641325		3.125282501		2.466039698
F		-0.002713009		1.79342221		0.198083332
