12
-186.39349496
Al		-0.071674389		1.645118068		2.139142156
Al		2.530119928		2.615319409		1.770063535
Al		1.36229978		2.674051112		-0.65475283
F		1.00661157		3.087098416		2.848288743
F		-1.586071027		2.668118106		2.191367874
F		-0.505467367		-0.009960114		2.756175446
F		1.818084105		0.875309833		1.935396705
F		2.949113929		1.839493269		-0.07011148
F		1.084717809		3.032785581		-2.40543618
F		1.740334286		4.015422075		0.638787779
F		4.118025232		3.125272025		2.466397916
F		-0.002317327		1.79299501		0.197299021
