12
-186.39349496
Al		-0.077224589		1.641237268		2.153513106
Al		2.525870078		2.608013709		1.766186785
Al		1.35877648		2.665491712		-0.64786428
F		1.00180247		3.092355666		2.836895993
F		-1.579148577		2.682958656		2.177915474
F		-0.494435317		-0.024633464		2.753113646
F		1.810337005		0.869045333		1.934178455
F		2.963366979		1.855077719		-0.07248553
F		1.087292809		3.034593931		-2.39663228
F		1.746977686		4.015104675		0.633667679
F		4.111626782		3.125446625		2.460427616
F		-0.008912027		1.80011501		0.210370871
