12
-186.39349496
Al		-0.071230373		1.645428532		2.13799248
Al		2.530459916		2.615903865		1.770373675
Al		1.362581644		2.674735864		-0.655303914
F		1.006996298		3.086677836		2.849200163
F		-1.586624823		2.666930862		2.192444066
F		-0.506349931		-0.008786246		2.75642039
F		1.818703873		0.875810993		1.935494165
F		2.947973685		1.838246513		-0.069921556
F		1.084511809		3.032640913		-2.406140492
F		1.739802814		4.015447467		0.639197387
F		4.118537108		3.125258057		2.46687554
F		-0.001789751		1.79242541		0.196253273
