12
-186.39349496
Al		-0.070897361		1.64566138		2.137130223
Al		2.530714907		2.616342207		1.77060628
Al		1.362793042		2.675249428		-0.655717227
F		1.007284844		3.086362401		2.849883728
F		-1.58704017		2.666040429		2.19325121
F		-0.507011854		-0.007905845		2.756604098
F		1.819168699		0.876186863		1.93556726
F		2.947118502		1.837311446		-0.069779113
F		1.084357309		3.032532412		-2.406668726
F		1.73940421		4.015466511		0.639504593
F		4.118921015		3.125247581		2.467233758
F		-0.001394069		1.79199821		0.195468962
