12
-186.39349496
Al		-0.077113585		1.641314884		2.153225687
Al		2.525955075		2.608159823		1.76626432
Al		1.358846946		2.6656629		-0.648002051
F		1.001898652		3.092250521		2.837123848
F		-1.579287026		2.682661845		2.178184522
F		-0.494655958		-0.024339997		2.753174882
F		1.810491947		0.869170623		1.93420282
F		2.963081918		1.85476603		-0.072438049
F		1.087241309		3.034557764		-2.396808358
F		1.746844818		4.015111023		0.633770081
F		4.111754751		3.125443133		2.460547022
F		-0.008780133		1.79997261		0.210109434
