12
-186.39349496
Al		-0.069343305		1.646748004		2.133106357
Al		2.531904865		2.618387803		1.77169177
Al		1.363779566		2.67764606		-0.657646021
F		1.008631392		3.084890371		2.853073698
F		-1.588978456		2.661885075		2.197017882
F		-0.510100828		-0.003797307		2.757461402
F		1.821337887		0.877940923		1.93590837
F		2.943127648		1.8329478		-0.069114379
F		1.083636309		3.032026074		-2.409133818
F		1.737544058		4.015555383		0.640938221
F		4.120712581		3.125198693		2.468905442
F		0.000452447		1.79000461		0.191808844
