12
-186.39349496
Al		-0.069232301		1.64682562		2.132818938
Al		2.531989862		2.618533917		1.771769305
Al		1.363850032		2.677817248		-0.657783792
F		1.008727574		3.084785226		2.853301553
F		-1.589116905		2.661588264		2.19728693
F		-0.510321469		-0.00350384		2.757522638
F		1.821492829		0.878066213		1.935932735
F		2.942842587		1.832636111		-0.069066898
F		1.083584809		3.031989907		-2.409309896
F		1.73741119		4.015561731		0.641040623
F		4.12084055		3.125195201		2.469024848
F		0.000584341		1.78986221		0.191547407
