12
-186.39349496
Al		-0.068122261		1.64760178		2.129944748
Al		2.532839832		2.619995057		1.772544655
Al		1.364554692		2.679529128		-0.659161502
F		1.009689394		3.083733776		2.855580103
F		-1.590501395		2.658620154		2.19997741
F		-0.512527879		-0.00056917		2.758134998
F		1.823042249		0.879319113		1.936176385
F		2.939991977		1.829519221		-0.068592088
F		1.083069809		3.031628237		-2.411070676
F		1.73608251		4.015625211		0.642064643
F		4.12212024		3.125160281		2.470218908
F		0.001903281		1.78843821		0.188933037
