12
-186.39349496
Al		-0.076891577		1.641470116		2.152650849
Al		2.526125069		2.608452051		1.76641939
Al		1.358987878		2.666005276		-0.648277593
F		1.002091016		3.092040231		2.837579558
F		-1.579563924		2.682068223		2.178722618
F		-0.49509724		-0.023753063		2.753297354
F		1.810801831		0.869421203		1.93425155
F		2.962511796		1.854142652		-0.072343087
F		1.087138309		3.03448543		-2.397160514
F		1.746579082		4.015123719		0.633974885
F		4.112010689		3.125436149		2.460785834
F		-0.008516345		1.79968781		0.20958656
