12
-186.39349496
Al		-0.067678245		1.647912244		2.128795072
Al		2.53317982		2.620579513		1.772854795
Al		1.364836556		2.68021388		-0.659712586
F		1.010074122		3.083313196		2.856491523
F		-1.591055191		2.65743291		2.201053602
F		-0.513410443		0.000604698		2.758379942
F		1.823662017		0.879820273		1.936273845
F		2.938851733		1.828272465		-0.068402164
F		1.082863809		3.031483569		-2.411774988
F		1.735551038		4.015650603		0.642474251
F		4.122632116		3.125146313		2.470696532
F		0.002430857		1.78786861		0.187887289
