12
-186.39349496
Al		-0.067456237		1.648067476		2.128220234
Al		2.533349814		2.620871741		1.773009865
Al		1.364977488		2.680556256		-0.659988128
F		1.010266486		3.083102906		2.856947233
F		-1.591332089		2.656839288		2.201591698
F		-0.513851725		0.001191632		2.758502414
F		1.823971901		0.880070853		1.936322575
F		2.938281611		1.827649087		-0.068307202
F		1.082760809		3.031411235		-2.412127144
F		1.735285302		4.015663299		0.642679055
F		4.122888054		3.125139329		2.470935344
F		0.002694645		1.78758381		0.187364415
