12
-186.39349496
Al		-0.067012221		1.64837794		2.127070558
Al		2.533689802		2.621456197		1.773320005
Al		1.365259352		2.681241008		-0.660539212
F		1.010651214		3.082682326		2.857858653
F		-1.591885885		2.655652044		2.20266789
F		-0.514734289		0.0023655		2.758747358
F		1.824591669		0.880572013		1.936420035
F		2.937141367		1.826402331		-0.068117278
F		1.082554809		3.031266567		-2.412831456
F		1.73475383		4.015688691		0.643088663
F		4.12339993		3.125125361		2.471412968
F		0.003222221		1.78701421		0.186318667
