12
Properties=species:S:1:pos:R:3:forces:R:3 energy=-174.38905727 pbc="F F F"
Al    0.027600771999999996    -2.054829311    -2.314499761    6.515998    8.801678    -8.003497
Al    2.37035393    -0.487566956    -1.1393595239999998    -2.621103    -0.480426    -13.299771
Al    -0.463933406    -0.04378879699999999    -2.311922983    9.688    -4.895604    -8.133843
F    3.503464288    -0.206647316    -0.08082642300000001    0.36625    0.071932    1.35396
F    -0.18536397400000001    -4.110627593    -2.201023036    -0.667643    -0.97835    0.754664
F    2.302194438    -1.556902376    -2.039926389    -4.268573    2.236288    3.444889
F    1.8166203950000002    0.533842339    -2.04140442    -2.836703    -3.946734    3.386054
F    -1.525959422    1.706920831    -2.144511311    -1.026561    0.571509    0.769413
F    -1.363138686    -1.329064252    -0.764638369    -3.386777    -0.822803    4.045069
F    -0.06269997399999999    -0.9875054090000001    -2.692159081    1.287803    0.243257    5.776797
F    0.441019796    0.46843269800000004    0.12862859799999998    -1.80066    0.788489    4.964447
F    1.0478991340000001    -2.16673391    0.10981422700000001    -1.25003    -1.589236    4.941818
