12
-186.56215295
Al		-0.364531498		1.03563489		-1.819517816
Al		-0.447835111		1.074121971		1.281668301
Al		-3.018790193		0.453315818		-1.858713319
F		-3.532755725		0.319595586		-3.599820301
F		-1.373686708		-0.563017334		-1.841043298
F		-1.948060033		2.063904919		-1.893592611
F		-2.034505277		0.716861195		0.455703509
F		0.596635866		1.268925887		-0.294751805
F		-0.302144891		2.739022944		1.990748411
F		0.367151458		-0.354637721		2.049952198
F		-4.277343997		0.214083026		-0.580854683
F		0.747194879		1.245588393		-3.233889964
