12
-186.56215295
Al		-0.364784628		1.036806155		-1.819540156
Al		-0.447814176		1.074025111		1.281670151
Al		-3.018224238		0.450697088		-1.858663374
F		-3.53328006		0.322021711		-3.599866571
F		-1.371929983		-0.563457349		-1.840423078
F		-1.949473503		2.062756684		-1.894182536
F		-2.034628827		0.717432865		0.455692609
F		0.596745591		1.268418182		-0.29474212
F		-0.302308846		2.738971614		1.990698731
F		0.367321583		-0.354614946		2.050002418
F		-4.277644112		0.215471676		-0.580881168
F		0.747286009		1.245166738		-3.233881924
