12
-186.56215295
Al		-0.364835254		1.037040408		-1.819544624
Al		-0.447809989		1.074005739		1.281670521
Al		-3.018111047		0.450173342		-1.858653385
F		-3.533384927		0.322506936		-3.599875825
F		-1.371578638		-0.563545352		-1.840299034
F		-1.949756197		2.062527037		-1.894300521
F		-2.034653537		0.717547199		0.455690429
F		0.596767536		1.268316641		-0.294740183
F		-0.302341637		2.738961348		1.990688795
F		0.367355608		-0.354610391		2.050012462
F		-4.277704135		0.215749406		-0.580886465
F		0.747304235		1.245082407		-3.233880316
