12
-186.56215295
Al		-0.365037758		1.03797742		-1.819562496
Al		-0.447793241		1.073928251		1.281672001
Al		-3.017658283		0.448078358		-1.858613429
F		-3.533804395		0.324447836		-3.599912841
F		-1.370173258		-0.563897364		-1.839802858
F		-1.950886973		2.061608449		-1.894772461
F		-2.034752377		0.718004535		0.455681709
F		0.596855316		1.267910477		-0.294732435
F		-0.302472801		2.738920284		1.990649051
F		0.367491708		-0.354592171		2.050052638
F		-4.277944227		0.216860326		-0.580907653
F		0.747377139		1.244745083		-3.233873884
