12
-186.56215295
Al		-0.36513901		1.038445926		-1.819571432
Al		-0.447784867		1.073889507		1.281672741
Al		-3.017431901		0.447030866		-1.858593451
F		-3.534014129		0.325418286		-3.599931349
F		-1.369470568		-0.56407337		-1.83955477
F		-1.951452361		2.061149155		-1.895008431
F		-2.034801797		0.718233203		0.455677349
F		0.596899206		1.267707395		-0.294728561
F		-0.302538383		2.738899752		1.990629179
F		0.367559758		-0.354583061		2.050072726
F		-4.278064273		0.217415786		-0.580918247
F		0.747413591		1.244576421		-3.233870668
