12
-186.56215295
Al		-0.365240262		1.038914432		-1.819580368
Al		-0.447776493		1.073850763		1.281673481
Al		-3.017205519		0.445983374		-1.858573473
F		-3.534223863		0.326388736		-3.599949857
F		-1.368767878		-0.564249376		-1.839306682
F		-1.952017749		2.060689861		-1.895244401
F		-2.034851217		0.718461871		0.455672989
F		0.596943096		1.267504313		-0.294724687
F		-0.302603965		2.73887922		1.990609307
F		0.367627808		-0.354573951		2.050092814
F		-4.278184319		0.217971246		-0.580928841
F		0.747450043		1.244407759		-3.233867452
