12
-186.56215295
Al		-0.365290888		1.039148685		-1.819584836
Al		-0.447772306		1.073831391		1.281673851
Al		-3.017092328		0.445459628		-1.858563484
F		-3.53432873		0.326873961		-3.599959111
F		-1.368416533		-0.564337379		-1.839182638
F		-1.952300443		2.060460214		-1.895362386
F		-2.034875927		0.718576205		0.455670809
F		0.596965041		1.267402772		-0.29472275
F		-0.302636756		2.738868954		1.990599371
F		0.367661833		-0.354569396		2.050102858
F		-4.278244342		0.218248976		-0.580934138
F		0.747468269		1.244323428		-3.233865844
