12
-186.56215295
Al		-0.365341514		1.039382938		-1.819589304
Al		-0.447768119		1.073812019		1.281674221
Al		-3.016979137		0.444935882		-1.858553495
F		-3.534433597		0.327359186		-3.599968365
F		-1.368065188		-0.564425382		-1.839058594
F		-1.952583137		2.060230567		-1.895480371
F		-2.034900637		0.718690539		0.455668629
F		0.596986986		1.267301231		-0.294720813
F		-0.302669547		2.738858688		1.990589435
F		0.367695858		-0.354564841		2.050112902
F		-4.278304365		0.218526706		-0.580939435
F		0.747486495		1.244239097		-3.233864236
