12
-186.56215295
Al		-0.365442766		1.039851444		-1.81959824
Al		-0.447759745		1.073773275		1.281674961
Al		-3.016752755		0.44388839		-1.858533517
F		-3.534643331		0.328329636		-3.599986873
F		-1.367362498		-0.564601388		-1.838810506
F		-1.953148525		2.059771273		-1.895716341
F		-2.034950057		0.718919207		0.455664269
F		0.597030876		1.267098149		-0.294716939
F		-0.302735129		2.738838156		1.990569563
F		0.367763908		-0.354555731		2.05013299
F		-4.278424411		0.219082166		-0.580950029
F		0.747522947		1.244070435		-3.23386102
