12
-186.56215295
Al		-0.365493392		1.040085697		-1.819602708
Al		-0.447755558		1.073753903		1.281675331
Al		-3.016639564		0.443364644		-1.858523528
F		-3.534748198		0.328814861		-3.599996127
F		-1.367011153		-0.564689391		-1.838686462
F		-1.953431219		2.059541626		-1.895834326
F		-2.034974767		0.719033541		0.455662089
F		0.597052821		1.266996608		-0.294715002
F		-0.30276792		2.73882789		1.990559627
F		0.367797933		-0.354551176		2.050143034
F		-4.278484434		0.219359896		-0.580955326
F		0.747541173		1.243986104		-3.233859412
