12
-186.56215295
Al		-0.36564527		1.040788456		-1.819616112
Al		-0.447742997		1.073695787		1.281676441
Al		-3.016299991		0.441793406		-1.858493561
F		-3.535062799		0.330270536		-3.600023889
F		-1.365957118		-0.5649534		-1.83831433
F		-1.954279301		2.058852685		-1.896188281
F		-2.035048897		0.719376543		0.455655549
F		0.597118656		1.266691985		-0.294709191
F		-0.302866293		2.738797092		1.990529819
F		0.367900008		-0.354537511		2.050173166
F		-4.278664503		0.220193086		-0.580971217
F		0.747595851		1.243733111		-3.233854588
