12
-186.56215295
Al		-0.366202156		1.043365239		-1.81966526
Al		-0.44769694		1.073482695		1.281680511
Al		-3.01505489		0.4360322		-1.858383682
F		-3.536216336		0.335608011		-3.600125683
F		-1.362092323		-0.565921433		-1.836949846
F		-1.957388935		2.056326568		-1.897486116
F		-2.035320707		0.720634217		0.455631569
F		0.597360051		1.265575034		-0.294687884
F		-0.303226994		2.738684166		1.990420523
F		0.368274283		-0.354487406		2.05028365
F		-4.279324756		0.223248116		-0.581029484
F		0.747796337		1.24280547		-3.2338369
