12
-186.56215295
Al		-0.366303408		1.043833745		-1.819674196
Al		-0.447688566		1.073443951		1.281681251
Al		-3.014828508		0.434984708		-1.858363704
F		-3.53642607		0.336578461		-3.600144191
F		-1.361389633		-0.566097439		-1.836701758
F		-1.957954323		2.055867274		-1.897722086
F		-2.035370127		0.720862885		0.455627209
F		0.597403941		1.265371952		-0.29468401
F		-0.303292576		2.738663634		1.990400651
F		0.368342333		-0.354478296		2.050303738
F		-4.279444802		0.223803576		-0.581040078
F		0.747832789		1.242636808		-3.233833684
