12
-186.56215295
Al		-0.366354034		1.044067998		-1.819678664
Al		-0.447684379		1.073424579		1.281681621
Al		-3.014715317		0.434460962		-1.858353715
F		-3.536530937		0.337063686		-3.600153445
F		-1.361038288		-0.566185442		-1.836577714
F		-1.958237017		2.055637627		-1.897840071
F		-2.035394837		0.720977219		0.455625029
F		0.597425886		1.265270411		-0.294682073
F		-0.303325367		2.738653368		1.990390715
F		0.368376358		-0.354473741		2.050313782
F		-4.279504825		0.224081306		-0.581045375
F		0.747851015		1.242552477		-3.233832076
