12
-186.56215295
Al		-0.36665779		1.045473516		-1.819705472
Al		-0.447659257		1.073308347		1.281683841
Al		-3.014036171		0.431318486		-1.858293781
F		-3.537160139		0.339975036		-3.600208969
F		-1.358930218		-0.56671346		-1.83583345
F		-1.959933181		2.054259745		-1.898547981
F		-2.035543097		0.721663223		0.455611949
F		0.597557556		1.264661165		-0.294670451
F		-0.303522113		2.738591772		1.990331099
F		0.368580508		-0.354446411		2.050374046
F		-4.279864963		0.225747686		-0.581077157
F		0.747960371		1.242046491		-3.233822428
