12
-186.56215295
Al		-0.366759042		1.045942022		-1.819714408
Al		-0.447650883		1.073269603		1.281684581
Al		-3.013809789		0.430270994		-1.858273803
F		-3.537369873		0.340945486		-3.600227477
F		-1.358227528		-0.566889466		-1.835585362
F		-1.960498569		2.053800451		-1.898783951
F		-2.035592517		0.721891891		0.455607589
F		0.597601446		1.264458083		-0.294666577
F		-0.303587695		2.73857124		1.990311227
F		0.368648558		-0.354437301		2.050394134
F		-4.279985009		0.226303146		-0.581087751
F		0.747996823		1.241877829		-3.233819212
