12
-186.56215295
Al		-0.366809668		1.046176275		-1.819718876
Al		-0.447646696		1.073250231		1.281684951
Al		-3.013696598		0.429747248		-1.858263814
F		-3.53747474		0.341430711		-3.600236731
F		-1.357876183		-0.566977469		-1.835461318
F		-1.960781263		2.053570804		-1.898901936
F		-2.035617227		0.722006225		0.455605409
F		0.597623391		1.264356542		-0.29466464
F		-0.303620486		2.738560974		1.990301291
F		0.368682583		-0.354432746		2.050404178
F		-4.280045032		0.226580876		-0.581093048
F		0.748015049		1.241793498		-3.233817604
