12
-186.56215295
Al		-0.366961546		1.046879034		-1.81973228
Al		-0.447634135		1.073192115		1.281686061
Al		-3.013357025		0.42817601		-1.858233847
F		-3.537789341		0.342886386		-3.600264493
F		-1.356822148		-0.567241478		-1.835089186
F		-1.961629345		2.052881863		-1.899255891
F		-2.035691357		0.722349227		0.455598869
F		0.597689226		1.264051919		-0.294658829
F		-0.303718859		2.738530176		1.990271483
F		0.368784658		-0.354419081		2.05043431
F		-4.280225101		0.227414066		-0.581108939
F		0.748069727		1.241540505		-3.23381278
