12
-186.56215295
Al		-0.367062798		1.04734754		-1.819741216
Al		-0.447625761		1.073153371		1.281686801
Al		-3.013130643		0.427128518		-1.858213869
F		-3.537999075		0.343856836		-3.600283001
F		-1.356119458		-0.567417484		-1.834841098
F		-1.962194733		2.052422569		-1.899491861
F		-2.035740777		0.722577895		0.455594509
F		0.597733116		1.263848837		-0.294654955
F		-0.303784441		2.738509644		1.990251611
F		0.368852708		-0.354409971		2.050454398
F		-4.280345147		0.227969526		-0.581119533
F		0.748106179		1.241371843		-3.233809564
