12
-186.56215295
Al		-0.367113424		1.047581793		-1.819745684
Al		-0.447621574		1.073133999		1.281687171
Al		-3.013017452		0.426604772		-1.85820388
F		-3.538103942		0.344342061		-3.600292255
F		-1.355768113		-0.567505487		-1.834717054
F		-1.962477427		2.052192922		-1.899609846
F		-2.035765487		0.722692229		0.455592329
F		0.597755061		1.263747296		-0.294653018
F		-0.303817232		2.738499378		1.990241675
F		0.368886733		-0.354405416		2.050464442
F		-4.28040517		0.228247256		-0.58112483
F		0.748124405		1.241287512		-3.233807956
