12
-186.56215295
Al		-0.36716405		1.047816046		-1.819750152
Al		-0.447617387		1.073114627		1.281687541
Al		-3.012904261		0.426081026		-1.858193891
F		-3.538208809		0.344827286		-3.600301509
F		-1.355416768		-0.56759349		-1.83459301
F		-1.962760121		2.051963275		-1.899727831
F		-2.035790197		0.722806563		0.455590149
F		0.597777006		1.263645755		-0.294651081
F		-0.303850023		2.738489112		1.990231739
F		0.368920758		-0.354400861		2.050474486
F		-4.280465193		0.228524986		-0.581130127
F		0.748142631		1.241203181		-3.233806348
