12
-186.56215295
Al		-0.367315928		1.048518805		-1.819763556
Al		-0.447604826		1.073056511		1.281688651
Al		-3.012564688		0.424509788		-1.858163924
F		-3.53852341		0.346282961		-3.600329271
F		-1.354362733		-0.567857499		-1.834220878
F		-1.963608203		2.051274334		-1.900081786
F		-2.035864327		0.723149565		0.455583609
F		0.597842841		1.263341132		-0.29464527
F		-0.303948396		2.738458314		1.990201931
F		0.369022833		-0.354387196		2.050504618
F		-4.280645262		0.229358176		-0.581146018
F		0.748197309		1.240950188		-3.233801524
