12
-186.56215295
Al		-0.367366554		1.048753058		-1.819768024
Al		-0.447600639		1.073037139		1.281689021
Al		-3.012451497		0.423986042		-1.858153935
F		-3.538628277		0.346768186		-3.600338525
F		-1.354011388		-0.567945502		-1.834096834
F		-1.963890897		2.051044687		-1.900199771
F		-2.035889037		0.723263899		0.455581429
F		0.597864786		1.263239591		-0.294643333
F		-0.303981187		2.738448048		1.990191995
F		0.369056858		-0.354382641		2.050514662
F		-4.280705285		0.229635906		-0.581151315
F		0.748215535		1.240865857		-3.233799916
