12
-186.56215295
Al		-0.367619684		1.049924323		-1.819790364
Al		-0.447579704		1.072940279		1.281690871
Al		-3.011885542		0.421367312		-1.85810399
F		-3.539152612		0.349194311		-3.600384795
F		-1.352254663		-0.568385517		-1.833476614
F		-1.965304367		2.049896452		-1.900789696
F		-2.036012587		0.723835569		0.455570529
F		0.597974511		1.262731886		-0.294633648
F		-0.304145142		2.738396718		1.990142315
F		0.369226983		-0.354359866		2.050564882
F		-4.2810054		0.231024556		-0.5811778
F		0.748306665		1.240444202		-3.233791876
