12
-186.56215295
Al		-0.367771562		1.050627082		-1.819803768
Al		-0.447567143		1.072882163		1.281691981
Al		-3.011545969		0.419796074		-1.858074023
F		-3.539467213		0.350649986		-3.600412557
F		-1.351200628		-0.568649526		-1.833104482
F		-1.966152449		2.049207511		-1.901143651
F		-2.036086717		0.724178571		0.455563989
F		0.598040346		1.262427263		-0.294627837
F		-0.304243515		2.73836592		1.990112507
F		0.369329058		-0.354346201		2.050595014
F		-4.281185469		0.231857746		-0.581193691
F		0.748361343		1.240191209		-3.233787052
