12
-186.56215295
Al		-0.368024692		1.051798347		-1.819826108
Al		-0.447546208		1.072785303		1.281693831
Al		-3.010980014		0.417177344		-1.858024078
F		-3.539991548		0.353076111		-3.600458827
F		-1.349443903		-0.569089541		-1.832484262
F		-1.967565919		2.048059276		-1.901733576
F		-2.036210267		0.724750241		0.455553089
F		0.598150071		1.261919558		-0.294618152
F		-0.30440747		2.73831459		1.990062827
F		0.369499183		-0.354323426		2.050645234
F		-4.281485584		0.233246396		-0.581220176
F		0.748452473		1.239769554		-3.233779012
