12
-186.56215295
Al		-0.364430246		1.035166384		-1.81950888
Al		-0.447843485		1.074160715		1.281667561
Al		-3.019016575		0.45436331		-1.858733297
F		-3.532545991		0.318625136		-3.599801793
F		-1.374389398		-0.562841328		-1.841291386
F		-1.947494645		2.064364213		-1.893356641
F		-2.034455857		0.716632527		0.455707869
F		0.596591976		1.269128969		-0.294755679
F		-0.302079309		2.739043476		1.990768283
F		0.367083408		-0.354646831		2.04993211
F		-4.277223951		0.213527566		-0.580844089
F		0.747158427		1.245757055		-3.23389318
