12
-186.56215295
Al		-0.368075318		1.0520326		-1.819830576
Al		-0.447542021		1.072765931		1.281694201
Al		-3.010866823		0.416653598		-1.858014089
F		-3.540096415		0.353561336		-3.600468081
F		-1.349092558		-0.569177544		-1.832360218
F		-1.967848613		2.047829629		-1.901851561
F		-2.036234977		0.724864575		0.455550909
F		0.598172016		1.261818017		-0.294616215
F		-0.304440261		2.738304324		1.990052891
F		0.369533208		-0.354318871		2.050655278
F		-4.281545607		0.233524126		-0.581225473
F		0.748470699		1.239685223		-3.233777404
