12
-186.56215295
Al		-0.368328448		1.053203865		-1.819852916
Al		-0.447521086		1.072669071		1.281696051
Al		-3.010300868		0.414034868		-1.857964144
F		-3.54062075		0.355987461		-3.600514351
F		-1.347335833		-0.569617559		-1.831739998
F		-1.969262083		2.046681394		-1.902441486
F		-2.036358527		0.725436245		0.455540009
F		0.598281741		1.261310312		-0.29460653
F		-0.304604216		2.738252994		1.990003211
F		0.369703333		-0.354296096		2.050705498
F		-4.281845722		0.234912776		-0.581251958
F		0.748561829		1.239263568		-3.233769364
