12
-186.56215295
Al		-0.368480326		1.053906624		-1.81986632
Al		-0.447508525		1.072610955		1.281697161
Al		-3.009961295		0.41246363		-1.857934177
F		-3.540935351		0.357443136		-3.600542113
F		-1.346281798		-0.569881568		-1.831367866
F		-1.970110165		2.045992453		-1.902795441
F		-2.036432657		0.725779247		0.455533469
F		0.598347576		1.261005689		-0.294600719
F		-0.304702589		2.738222196		1.989973403
F		0.369805408		-0.354282431		2.05073563
F		-4.282025791		0.235745966		-0.581267849
F		0.748616507		1.239010575		-3.23376454
