12
-186.56215295
Al		-0.368530952		1.054140877		-1.819870788
Al		-0.447504338		1.072591583		1.281697531
Al		-3.009848104		0.411939884		-1.857924188
F		-3.541040218		0.357928361		-3.600551367
F		-1.345930453		-0.569969571		-1.831243822
F		-1.970392859		2.045762806		-1.902913426
F		-2.036457367		0.725893581		0.455531289
F		0.598369521		1.260904148		-0.294598782
F		-0.30473538		2.73821193		1.989963467
F		0.369839433		-0.354277876		2.050745674
F		-4.282085814		0.236023696		-0.581273146
F		0.748634733		1.238926244		-3.233762932
