12
-186.56215295
Al		-0.368581578		1.05437513		-1.819875256
Al		-0.447500151		1.072572211		1.281697901
Al		-3.009734913		0.411416138		-1.857914199
F		-3.541145085		0.358413586		-3.600560621
F		-1.345579108		-0.570057574		-1.831119778
F		-1.970675553		2.045533159		-1.903031411
F		-2.036482077		0.726007915		0.455529109
F		0.598391466		1.260802607		-0.294596845
F		-0.304768171		2.738201664		1.989953531
F		0.369873458		-0.354273321		2.050755718
F		-4.282145837		0.236301426		-0.581278443
F		0.748652959		1.238841913		-3.233761324
