12
-186.56215295
Al		-0.368733456		1.055077889		-1.81988866
Al		-0.44748759		1.072514095		1.281699011
Al		-3.00939534		0.4098449		-1.857884232
F		-3.541459686		0.359869261		-3.600588383
F		-1.344525073		-0.570321583		-1.830747646
F		-1.971523635		2.044844218		-1.903385366
F		-2.036556207		0.726350917		0.455522569
F		0.598457301		1.260497984		-0.294591034
F		-0.304866544		2.738170866		1.989923723
F		0.369975533		-0.354259656		2.05078585
F		-4.282325906		0.237134616		-0.581294334
F		0.748707637		1.23858892		-3.2337565
