12
-186.56215295
Al		-0.368834708		1.055546395		-1.819897596
Al		-0.447479216		1.072475351		1.281699751
Al		-3.009168958		0.408797408		-1.857864254
F		-3.54166942		0.360839711		-3.600606891
F		-1.343822383		-0.570497589		-1.830499558
F		-1.972089023		2.044384924		-1.903621336
F		-2.036605627		0.726579585		0.455518209
F		0.598501191		1.260294902		-0.29458716
F		-0.304932126		2.738150334		1.989903851
F		0.370043583		-0.354250546		2.050805938
F		-4.282445952		0.237690076		-0.581304928
F		0.748744089		1.238420258		-3.233753284
