12
-186.56215295
Al		-0.368885334		1.055780648		-1.819902064
Al		-0.447475029		1.072455979		1.281700121
Al		-3.009055767		0.408273662		-1.857854265
F		-3.541774287		0.361324936		-3.600616145
F		-1.343471038		-0.570585592		-1.830375514
F		-1.972371717		2.044155277		-1.903739321
F		-2.036630337		0.726693919		0.455516029
F		0.598523136		1.260193361		-0.294585223
F		-0.304964917		2.738140068		1.989893915
F		0.370077608		-0.354245991		2.050815982
F		-4.282505975		0.237967806		-0.581310225
F		0.748762315		1.238335927		-3.233751676
