12
-186.56215295
Al		-0.363518978		1.03094983		-1.819428456
Al		-0.447918851		1.074509411		1.281660901
Al		-3.021054013		0.463790738		-1.858913099
F		-3.530658385		0.309891086		-3.599635221
F		-1.380713608		-0.561257274		-1.843524178
F		-1.942406153		2.068497859		-1.891232911
F		-2.034011077		0.714574515		0.455747109
F		0.596196966		1.270956707		-0.294790545
F		-0.301489071		2.739228264		1.990947131
F		0.366470958		-0.354728821		2.049751318
F		-4.276143537		0.208528426		-0.580748743
F		0.746830359		1.247275013		-3.233922124
