12
-186.56215295
Al		-0.363215222		1.029544312		-1.819401648
Al		-0.447943973		1.074625643		1.281658681
Al		-3.021733159		0.466933214		-1.858973033
F		-3.530029183		0.306979736		-3.599579697
F		-1.382821678		-0.560729256		-1.844268442
F		-1.940709989		2.069875741		-1.890525001
F		-2.033862817		0.713888511		0.455760189
F		0.596065296		1.271565953		-0.294802167
F		-0.301292325		2.73928986		1.991006747
F		0.366266808		-0.354756151		2.049691054
F		-4.275783399		0.206862046		-0.580716961
F		0.746721003		1.247780999		-3.233931772
