12
-186.56215295
Al		-0.363164596		1.029310059		-1.81939718
Al		-0.44794816		1.074645015		1.281658311
Al		-3.02184635		0.46745696		-1.858983022
F		-3.529924316		0.306494511		-3.599570443
F		-1.383173023		-0.560641253		-1.844392486
F		-1.940427295		2.070105388		-1.890407016
F		-2.033838107		0.713774177		0.455762369
F		0.596043351		1.271667494		-0.294804104
F		-0.301259534		2.739300126		1.991016683
F		0.366232783		-0.354760706		2.04968101
F		-4.275723376		0.206584316		-0.580711664
F		0.746702777		1.24786533		-3.23393338
