12
-186.56215295
Al		-0.363923986		1.032823854		-1.8194642
Al		-0.447885355		1.074354435		1.281663861
Al		-3.020148485		0.45960077		-1.858833187
F		-3.531497321		0.313772886		-3.599709253
F		-1.377902848		-0.561961298		-1.842531826
F		-1.944667705		2.066660683		-1.892176791
F		-2.034208757		0.715489187		0.455729669
F		0.596372526		1.270144379		-0.294775049
F		-0.301751399		2.739146136		1.990867643
F		0.366743158		-0.354692381		2.04983167
F		-4.276623721		0.210750266		-0.580791119
F		0.746976167		1.246600365		-3.23390926
