12
-186.56215295
Al		-0.363012718		1.0286073		-1.819383776
Al		-0.447960721		1.074703131		1.281657201
Al		-3.022185923		0.469028198		-1.859012989
F		-3.529609715		0.305038836		-3.599542681
F		-1.384227058		-0.560377244		-1.844764618
F		-1.939579213		2.070794329		-1.890053061
F		-2.033763977		0.713431175		0.455768909
F		0.595977516		1.271972117		-0.294809915
F		-0.301161161		2.739330924		1.991046491
F		0.366130708		-0.354774371		2.049650878
F		-4.275543307		0.205751126		-0.580695773
F		0.746648099		1.248118323		-3.233938204
