12
-186.56215295
Al		-0.362911466		1.028138794		-1.81937484
Al		-0.447969095		1.074741875		1.281656461
Al		-3.022412305		0.47007569		-1.859032967
F		-3.529399981		0.304068386		-3.599524173
F		-1.384929748		-0.560201238		-1.845012706
F		-1.939013825		2.071253623		-1.889817091
F		-2.033714557		0.713202507		0.455773269
F		0.595933626		1.272175199		-0.294813789
F		-0.301095579		2.739351456		1.991066363
F		0.366062658		-0.354783481		2.04963079
F		-4.275423261		0.205195666		-0.580685179
F		0.746611647		1.248286985		-3.23394142
