12
-186.56215295
Al		-0.36260771		1.026733276		-1.819348032
Al		-0.447994217		1.074858107		1.281654241
Al		-3.023091451		0.473218166		-1.859092901
F		-3.528770779		0.301157036		-3.599468649
F		-1.387037818		-0.55967322		-1.84575697
F		-1.937317661		2.072631505		-1.889109181
F		-2.033566297		0.712516503		0.455786349
F		0.595801956		1.272784445		-0.294825411
F		-0.300898833		2.739413052		1.991125979
F		0.365858508		-0.354810811		2.049570526
F		-4.275063123		0.203529286		-0.580653397
F		0.746502291		1.248792971		-3.233951068
