12
-186.56215295
Al		-0.362557084		1.026499023		-1.819343564
Al		-0.447998404		1.074877479		1.281653871
Al		-3.023204642		0.473741912		-1.85910289
F		-3.528665912		0.300671811		-3.599459395
F		-1.387389163		-0.559585217		-1.845881014
F		-1.937034967		2.072861152		-1.888991196
F		-2.033541587		0.712402169		0.455788529
F		0.595780011		1.272885986		-0.294827348
F		-0.300866042		2.739423318		1.991135915
F		0.365824483		-0.354815366		2.049560482
F		-4.2750031		0.203251556		-0.5806481
F		0.746484065		1.248877302		-3.233952676
