12
-186.56215295
Al		-0.362405206		1.025796264		-1.81933016
Al		-0.448010965		1.074935595		1.281652761
Al		-3.023544215		0.47531315		-1.859132857
F		-3.528351311		0.299216136		-3.599431633
F		-1.388443198		-0.559321208		-1.846253146
F		-1.936186885		2.073550093		-1.888637241
F		-2.033467457		0.712059167		0.455795069
F		0.595714176		1.273190609		-0.294833159
F		-0.300767669		2.739454116		1.991165723
F		0.365722408		-0.354829031		2.04953035
F		-4.274823031		0.202418366		-0.580632209
F		0.746429387		1.249130295		-3.2339575
