12
-186.56215295
Al		-0.362253328		1.025093505		-1.819316756
Al		-0.448023526		1.074993711		1.281651651
Al		-3.023883788		0.476884388		-1.859162824
F		-3.52803671		0.297760461		-3.599403871
F		-1.389497233		-0.559057199		-1.846625278
F		-1.935338803		2.074239034		-1.888283286
F		-2.033393327		0.711716165		0.455801609
F		0.595648341		1.273495232		-0.29483897
F		-0.300669296		2.739484914		1.991195531
F		0.365620333		-0.354842696		2.049500218
F		-4.274642962		0.201585176		-0.580616318
F		0.746374709		1.249383288		-3.233962324
