12
-186.56215295
Al		-0.362152076		1.024624999		-1.81930782
Al		-0.4480319		1.075032455		1.281650911
Al		-3.02411017		0.47793188		-1.859182802
F		-3.527826976		0.296790011		-3.599385363
F		-1.390199923		-0.558881193		-1.846873366
F		-1.934773415		2.074698328		-1.888047316
F		-2.033343907		0.711487497		0.455805969
F		0.595604451		1.273698314		-0.294842844
F		-0.300603714		2.739505446		1.991215403
F		0.365552283		-0.354851806		2.04948013
F		-4.274522916		0.201029716		-0.580605724
F		0.746338257		1.24955195		-3.23396554
