12
-186.56215295
Al		-0.362050824		1.024156493		-1.819298884
Al		-0.448040274		1.075071199		1.281650171
Al		-3.024336552		0.478979372		-1.85920278
F		-3.527617242		0.295819561		-3.599366855
F		-1.390902613		-0.558705187		-1.847121454
F		-1.934208027		2.075157622		-1.887811346
F		-2.033294487		0.711258829		0.455810329
F		0.595560561		1.273901396		-0.294846718
F		-0.300538132		2.739525978		1.991235275
F		0.365484233		-0.354860916		2.049460042
F		-4.27440287		0.200474256		-0.58059513
F		0.746301805		1.249720612		-3.233968756
