12
-186.56215295
Al		-0.361949572		1.023687987		-1.819289948
Al		-0.448048648		1.075109943		1.281649431
Al		-3.024562934		0.480026864		-1.859222758
F		-3.527407508		0.294849111		-3.599348347
F		-1.391605303		-0.558529181		-1.847369542
F		-1.933642639		2.075616916		-1.887575376
F		-2.033245067		0.711030161		0.455814689
F		0.595516671		1.274104478		-0.294850592
F		-0.30047255		2.73954651		1.991255147
F		0.365416183		-0.354870026		2.049439954
F		-4.274282824		0.199918796		-0.580584536
F		0.746265353		1.249889274		-3.233971972
