12
-186.56215295
Al		-0.36184832		1.023219481		-1.819281012
Al		-0.448057022		1.075148687		1.281648691
Al		-3.024789316		0.481074356		-1.859242736
F		-3.527197774		0.293878661		-3.599329839
F		-1.392307993		-0.558353175		-1.84761763
F		-1.933077251		2.07607621		-1.887339406
F		-2.033195647		0.710801493		0.455819049
F		0.595472781		1.27430756		-0.294854466
F		-0.300406968		2.739567042		1.991275019
F		0.365348133		-0.354879136		2.049419866
F		-4.274162778		0.199363336		-0.580573942
F		0.746228901		1.250057936		-3.233975188
