12
-186.56215295
Al		-0.361645816		1.022282469		-1.81926314
Al		-0.44807377		1.075226175		1.281647211
Al		-3.02524208		0.48316934		-1.859282692
F		-3.526778306		0.291937761		-3.599292823
F		-1.393713373		-0.558001163		-1.848113806
F		-1.931946475		2.076994798		-1.886867466
F		-2.033096807		0.710344157		0.455827769
F		0.595385001		1.274713724		-0.294862214
F		-0.300275804		2.739608106		1.991314763
F		0.365212033		-0.354897356		2.04937969
F		-4.273922686		0.198252416		-0.580552754
F		0.746155997		1.25039526		-3.23398162
