12
-186.56215295
Al		-0.361544564		1.021813963		-1.819254204
Al		-0.448082144		1.075264919		1.281646471
Al		-3.025468462		0.484216832		-1.85930267
F		-3.526568572		0.290967311		-3.599274315
F		-1.394416063		-0.557825157		-1.848361894
F		-1.931381087		2.077454092		-1.886631496
F		-2.033047387		0.710115489		0.455832129
F		0.595341111		1.274916806		-0.294866088
F		-0.300210222		2.739628638		1.991334635
F		0.365143983		-0.354906466		2.049359602
F		-4.27380264		0.197696956		-0.58054216
F		0.746119545		1.250563922		-3.233984836
