12
-186.56215295
Al		-0.363772108		1.032121095		-1.819450796
Al		-0.447897916		1.074412551		1.281662751
Al		-3.020488058		0.461172008		-1.858863154
F		-3.53118272		0.312317211		-3.599681491
F		-1.378956883		-0.561697289		-1.842903958
F		-1.943819623		2.067349624		-1.891822836
F		-2.034134627		0.715146185		0.455736209
F		0.596306691		1.270449002		-0.29478086
F		-0.301653026		2.739176934		1.990897451
F		0.366641083		-0.354706046		2.049801538
F		-4.276443652		0.209917076		-0.580775228
F		0.746921489		1.246853358		-3.233914084
