12
-186.56215295
Al		-0.361291434		1.020642698		-1.819231864
Al		-0.448103079		1.075361779		1.281644621
Al		-3.026034417		0.486835562		-1.859352615
F		-3.526044237		0.288541186		-3.599228045
F		-1.396172788		-0.557385142		-1.848982114
F		-1.929967617		2.078602327		-1.886041571
F		-2.032923837		0.709543819		0.455843029
F		0.595231386		1.275424511		-0.294875773
F		-0.300046267		2.739679968		1.991384315
F		0.364973858		-0.354929241		2.049309382
F		-4.273502525		0.196308306		-0.580515675
F		0.746028415		1.250985577		-3.233992876
