12
-186.56215295
Al		-0.361139556		1.019939939		-1.81921846
Al		-0.44811564		1.075419895		1.281643511
Al		-3.02637399		0.4884068		-1.859382582
F		-3.525729636		0.287085511		-3.599200283
F		-1.397226823		-0.557121133		-1.849354246
F		-1.929119535		2.079291268		-1.885687616
F		-2.032849707		0.709200817		0.455849569
F		0.595165551		1.275729134		-0.294881584
F		-0.299947894		2.739710766		1.991414123
F		0.364871783		-0.354942906		2.04927925
F		-4.273322456		0.195475116		-0.580499784
F		0.745973737		1.25123857		-3.2339977
