12
-186.56215295
Al		-0.361038304		1.019471433		-1.819209524
Al		-0.448124014		1.075458639		1.281642771
Al		-3.026600372		0.489454292		-1.85940256
F		-3.525519902		0.286115061		-3.599181775
F		-1.397929513		-0.556945127		-1.849602334
F		-1.928554147		2.079750562		-1.885451646
F		-2.032800287		0.708972149		0.455853929
F		0.595121661		1.275932216		-0.294885458
F		-0.299882312		2.739731298		1.991433995
F		0.364803733		-0.354952016		2.049259162
F		-4.27320241		0.194919656		-0.58048919
F		0.745937285		1.251407232		-3.234000916
