12
-186.56215295
Al		-0.363721482		1.031886842		-1.819446328
Al		-0.447902103		1.074431923		1.281662381
Al		-3.020601249		0.461695754		-1.858873143
F		-3.531077853		0.311831986		-3.599672237
F		-1.379308228		-0.561609286		-1.843028002
F		-1.943536929		2.067579271		-1.891704851
F		-2.034109917		0.715031851		0.455738389
F		0.596284746		1.270550543		-0.294782797
F		-0.301620235		2.7391872		1.990907387
F		0.366607058		-0.354710601		2.049791494
F		-4.276383629		0.209639346		-0.580769931
F		0.746903263		1.246937689		-3.233915692
