12
-186.56215295
Al		-0.360987678		1.01923718		-1.819205056
Al		-0.448128201		1.075478011		1.281642401
Al		-3.026713563		0.489978038		-1.859412549
F		-3.525415035		0.285629836		-3.599172521
F		-1.398280858		-0.556857124		-1.849726378
F		-1.928271453		2.079980209		-1.885333661
F		-2.032775577		0.708857815		0.455856109
F		0.595099716		1.276033757		-0.294887395
F		-0.299849521		2.739741564		1.991443931
F		0.364769708		-0.354956571		2.049249118
F		-4.273142387		0.194641926		-0.580483893
F		0.745919059		1.251491563		-3.234002524
