12
-186.56215295
Al		-0.3608358		1.018534421		-1.819191652
Al		-0.448140762		1.075536127		1.281641291
Al		-3.027053136		0.491549276		-1.859442516
F		-3.525100434		0.284174161		-3.599144759
F		-1.399334893		-0.556593115		-1.85009851
F		-1.927423371		2.08066915		-1.884979706
F		-2.032701447		0.708514813		0.455862649
F		0.595033881		1.27633838		-0.294893206
F		-0.299751148		2.739772362		1.991473739
F		0.364667633		-0.354970236		2.049218986
F		-4.272962318		0.193808736		-0.580468002
F		0.745864381		1.251744556		-3.234007348
