12
-186.56215295
Al		-0.360683922		1.017831662		-1.819178248
Al		-0.448153323		1.075594243		1.281640181
Al		-3.027392709		0.493120514		-1.859472483
F		-3.524785833		0.282718486		-3.599116997
F		-1.400388928		-0.556329106		-1.850470642
F		-1.926575289		2.081358091		-1.884625751
F		-2.032627317		0.708171811		0.455869189
F		0.594968046		1.276643003		-0.294899017
F		-0.299652775		2.73980316		1.991503547
F		0.364565558		-0.354983901		2.049188854
F		-4.272782249		0.192975546		-0.580452111
F		0.745809703		1.251997549		-3.234012172
