12
-186.56215295
Al		-0.36058267		1.017363156		-1.819169312
Al		-0.448161697		1.075632987		1.281639441
Al		-3.027619091		0.494168006		-1.859492461
F		-3.524576099		0.281748036		-3.599098489
F		-1.401091618		-0.5561531		-1.85071873
F		-1.926009901		2.081817385		-1.884389781
F		-2.032577897		0.707943143		0.455873549
F		0.594924156		1.276846085		-0.294902891
F		-0.299587193		2.739823692		1.991523419
F		0.364497508		-0.354993011		2.049168766
F		-4.272662203		0.192420086		-0.580441517
F		0.745773251		1.252166211		-3.234015388
