12
-186.56215295
Al		-0.360278914		1.015957638		-1.819142504
Al		-0.448186819		1.075749219		1.281637221
Al		-3.028298237		0.497310482		-1.859552395
F		-3.523946897		0.278836686		-3.599042965
F		-1.403199688		-0.555625082		-1.851462994
F		-1.924313737		2.083195267		-1.883681871
F		-2.032429637		0.707257139		0.455886629
F		0.594792486		1.277455331		-0.294914513
F		-0.299390447		2.739885288		1.991583035
F		0.364293358		-0.355020341		2.049108502
F		-4.272302065		0.190753706		-0.580409735
F		0.745663895		1.252672197		-3.234025036
