12
-186.56215295
Al		-0.360177662		1.015489132		-1.819133568
Al		-0.448195193		1.075787963		1.281636481
Al		-3.028524619		0.498357974		-1.859572373
F		-3.523737163		0.277866236		-3.599024457
F		-1.403902378		-0.555449076		-1.851711082
F		-1.923748349		2.083654561		-1.883445901
F		-2.032380217		0.707028471		0.455890989
F		0.594748596		1.277658413		-0.294918387
F		-0.299324865		2.73990582		1.991602907
F		0.364225308		-0.355029451		2.049088414
F		-4.272182019		0.190198246		-0.580399141
F		0.745627443		1.252840859		-3.234028252
