12
-186.56215295
Al		-0.360127036		1.015254879		-1.8191291
Al		-0.44819938		1.075807335		1.281636111
Al		-3.02863781		0.49888172		-1.859582362
F		-3.523632296		0.277381011		-3.599015203
F		-1.404253723		-0.555361073		-1.851835126
F		-1.923465655		2.083884208		-1.883327916
F		-2.032355507		0.706914137		0.455893169
F		0.594726651		1.277759954		-0.294920324
F		-0.299292074		2.739916086		1.991612843
F		0.364191283		-0.355034006		2.04907837
F		-4.272121996		0.189920516		-0.580393844
F		0.745609217		1.25292519		-3.23402986
