12
-186.56215295
Al		-0.36007641		1.015020626		-1.819124632
Al		-0.448203567		1.075826707		1.281635741
Al		-3.028751001		0.499405466		-1.859592351
F		-3.523527429		0.276895786		-3.599005949
F		-1.404605068		-0.55527307		-1.85195917
F		-1.923182961		2.084113855		-1.883209931
F		-2.032330797		0.706799803		0.455895349
F		0.594704706		1.277861495		-0.294922261
F		-0.299259283		2.739926352		1.991622779
F		0.364157258		-0.355038561		2.049068326
F		-4.272061973		0.189642786		-0.580388547
F		0.745590991		1.253009521		-3.234031468
