12
-186.56215295
Al		-0.359873906		1.014083614		-1.81910676
Al		-0.448220315		1.075904195		1.281634261
Al		-3.029203765		0.50150045		-1.859632307
F		-3.523107961		0.274954886		-3.598968933
F		-1.406010448		-0.554921058		-1.852455346
F		-1.922052185		2.085032443		-1.882737991
F		-2.032231957		0.706342467		0.455904069
F		0.594616926		1.278267659		-0.294930009
F		-0.299128119		2.739967416		1.991662523
F		0.364021158		-0.355056781		2.04902815
F		-4.271821881		0.188531866		-0.580367359
F		0.745518087		1.253346845		-3.2340379
