12
-186.56215295
Al		-0.359722028		1.013380855		-1.819093356
Al		-0.448232876		1.075962311		1.281633151
Al		-3.029543338		0.503071688		-1.859662274
F		-3.52279336		0.273499211		-3.598941171
F		-1.407064483		-0.554657049		-1.852827478
F		-1.921204103		2.085721384		-1.882384036
F		-2.032157827		0.705999465		0.455910609
F		0.594551091		1.278572282		-0.29493582
F		-0.299029746		2.739998214		1.991692331
F		0.363919083		-0.355070446		2.048998018
F		-4.271641812		0.187698676		-0.580351468
F		0.745463409		1.253599838		-3.234042724
