12
-186.56215295
Al		-0.359468898		1.01220959		-1.819071016
Al		-0.448253811		1.076059171		1.281631301
Al		-3.030109293		0.505690418		-1.859712219
F		-3.522269025		0.271073086		-3.598894901
F		-1.408821208		-0.554217034		-1.853447698
F		-1.919790633		2.086869619		-1.881794111
F		-2.032034277		0.705427795		0.455921509
F		0.594441366		1.279079987		-0.294945505
F		-0.298865791		2.740049544		1.991742011
F		0.363748958		-0.355093221		2.048947798
F		-4.271341697		0.186310026		-0.580324983
F		0.745372279		1.254021493		-3.234050764
