12
-186.56215295
Al		-0.359165142		1.010804072		-1.819044208
Al		-0.448278933		1.076175403		1.281629081
Al		-3.030788439		0.508832894		-1.859772153
F		-3.521639823		0.268161736		-3.598839377
F		-1.410929278		-0.553689016		-1.854191962
F		-1.918094469		2.088247501		-1.881086201
F		-2.031886017		0.704741791		0.455934589
F		0.594309696		1.279689233		-0.294957127
F		-0.298669045		2.74011114		1.991801627
F		0.363544808		-0.355120551		2.048887534
F		-4.270981559		0.184643646		-0.580293201
F		0.745262923		1.254527479		-3.234060412
