12
-186.56215295
Al		-0.359114516		1.010569819		-1.81903974
Al		-0.44828312		1.076194775		1.281628711
Al		-3.03090163		0.50935664		-1.859782142
F		-3.521534956		0.267676511		-3.598830123
F		-1.411280623		-0.553601013		-1.854316006
F		-1.917811775		2.088477148		-1.880968216
F		-2.031861307		0.704627457		0.455936769
F		0.594287751		1.279790774		-0.294959064
F		-0.298636254		2.740121406		1.991811563
F		0.363510783		-0.355125106		2.04887749
F		-4.270921536		0.184365916		-0.580287904
F		0.745244697		1.25461181		-3.23406202
