12
-186.56215295
Al		-0.359013264		1.010101313		-1.819030804
Al		-0.448291494		1.076233519		1.281627971
Al		-3.031128012		0.510404132		-1.85980212
F		-3.521325222		0.266706061		-3.598811615
F		-1.411983313		-0.553425007		-1.854564094
F		-1.917246387		2.088936442		-1.880732246
F		-2.031811887		0.704398789		0.455941129
F		0.594243861		1.279993856		-0.294962938
F		-0.298570672		2.740141938		1.991831435
F		0.363442733		-0.355134216		2.048857402
F		-4.27080149		0.183810456		-0.58027731
F		0.745208245		1.254780472		-3.234065236
