12
Properties=species:S:1:pos:R:3:forces:R:3 energy=-187.37114305 pbc="F F F"
Al    1.16570068    0.06624381700000001    2.382021573    -0.128648    0.093413    -0.062543
Al    1.399179    1.30423    -0.10523300000000001    0.02256    0.021195    -0.004082
Al    -0.295617062    0.7306932500000001    -2.243522273    0.09777    -0.122428    0.068142
F    -1.3056466720000002    -0.803627453    -2.0939281060000003    -0.11822    -0.131932    0.015489
F    1.791995753    -0.440866953    0.6413924520000001    0.088687    -0.11735    -0.087346
F    -0.436714861    1.98252929    -3.644981833    0.032521    0.192312    -0.204842
F    -0.43646381    1.693860753    -0.590746549    -0.094692    0.111709    0.088432
F    2.690373557    2.517246512    -0.33890544300000003    -0.004338    -0.004076    0.000785
F    1.5541562389999999    0.362109905    -1.828433754    0.040429    -0.04143    -0.061198
F    0.8074661169999999    1.836054429    1.697005039    -0.027289    0.053774    0.058818
F    2.6523344690000004    0.07847107600000003    3.539975437    0.228793    0.053186    0.157541
F    -0.41237182499999997    -0.830830352    2.700801571    -0.137574    -0.108373    0.030802
