      12
SCF Done            -187.37114305
Al            1.252966680         0.083543817         2.459517573
Al            1.276784000         1.189243000        -0.083083000
Al           -0.289432062         0.801188250        -2.337930273
F            -1.535949672        -0.526888453        -2.289897106
F             1.928066753        -0.418508953         0.735307452
F            -0.054642861         1.942218290        -3.742654833
F            -0.426256810         1.808922753        -0.711133549
F             2.587876557         2.420946512        -0.320355443
F             1.365430239         0.123408905        -1.701662754
F             0.541006117         1.647130429         1.652610039
F             2.648139469         0.473779076         3.569262437
F            -0.114049825        -1.043659352         2.884463571
