12
Properties=species:S:1:pos:R:3:forces:R:3 energy=-187.37114305 pbc="F F F"
Al    1.38234268    0.21383881700000001    2.427147573    -0.128648    0.093413    -0.062543
Al    1.148771    1.333623    -0.040953    0.02256    0.021195    -0.004082
Al    -0.429087062    0.67874225    -2.321613273    0.09777    -0.122428    0.068142
F    -1.6772866720000001    -0.6298644529999999    -2.6051461060000003    -0.11822    -0.131932    0.015489
F    1.9580387529999999    -0.266177953    0.6937114520000001    0.088687    -0.11735    -0.087346
F    -0.035573861    1.77756129    -3.750562833    0.032521    0.192312    -0.204842
F    -0.58487681    1.784079753    -0.718599549    -0.094692    0.111709    0.088432
F    2.934565557    2.154472512    0.212049557    -0.004338    -0.004076    0.000785
F    1.2587822389999999    0.179791905    -1.599104754    0.040429    -0.04143    -0.061198
F    0.509791117    1.774379429    1.741517039    -0.027289    0.053774    0.058818
F    2.807328469    0.440758076    3.535996437    0.228793    0.053186    0.157541
F    -0.066355825    -0.969052352    2.535004571    -0.137574    -0.108373    0.030802
