12
Properties=species:S:1:pos:R:3:forces:R:3 energy=-186.54706685 pbc="F F F"
Al    -0.551176738    1.08212086    -1.5504411359999999    0.027792    0.143185    -0.054675
Al    -0.263955614    1.120030653    1.461705136    -0.033814    0.100247    -0.122769
Al    -3.143881119    0.378774289    -2.284524942    0.011492    -0.065465    0.112744
F    -3.638584061    0.066801408    -3.928948008    -0.038162    -0.025128    -0.134344
F    -1.496905157    -0.567069301    -1.800804145    -0.042966    -0.124147    -5.6e-05
F    -2.1238445870000002    2.029257403    -2.101912583    0.062121    0.070042    -0.019453
F    -1.851531325    1.1003672389999999    0.395550924    -0.174311    -0.009111    -0.080583
F    0.7210613269999999    1.182459243    -0.20943561099999997    0.009954    0.002365    -0.01196
F    0.12530532499999997    2.7069550970000003    2.2456877470000003    0.059971    0.271941    0.170208
F    0.25654261500000003    -0.492348758    2.1563178450000002    0.153313    -0.359108    0.128476
F    -4.143752392    0.30565317    -0.682887065    -0.043301    0.002314    0.022572
F    0.546550627    1.296978237    -3.048883529    0.007912    -0.007134    -0.010159
