      12
SCF Done            -186.33330651
Al           -1.710910761         2.567073820        -1.238146891
Al           -0.525300855        -0.005955694        -2.337957174
Al           -2.189903476        -0.344644218        -0.511374237
F            -0.843882941         3.805444536        -0.218385457
F            -3.041334247         3.098910893        -2.351975092
F            -1.454619380        -1.670795427        -1.790377161
F            -2.430285562         1.448864583         0.104751362
F            -3.267020963        -1.289403832         0.593712453
F             0.608208598        -0.500929941        -3.658610904
F            -0.274434025         1.887505214        -2.260882931
F            -2.434530557         0.533569951        -2.274652928
F            -0.267047368         0.037991939        -0.391271808
