12
Properties=species:S:1:pos:R:3:forces:R:3 energy=-186.04115200 pbc="F F F"
Al    -0.285628457    1.928709996    2.103090121    -0.381793    0.613108    -0.348576
Al    2.5748908960000003    2.776261825    1.904124175    -0.829952    0.398255    -0.418872
Al    1.444563458    2.333330981    -0.495955253    1.262483    -0.733993    0.600221
F    0.812811152    3.2960865189999997    2.807893232    0.013258    0.026745    0.169634
F    -2.049908547    2.455618543    2.2929620949999996    -0.198243    -0.229742    -0.09248
F    -0.16619466    0.099637982    2.57446746    0.15747    -0.420936    0.091559
F    1.766510569    1.095411785    1.9054904339999998    -0.185088    -0.14707    -0.111608
F    3.2178019420000004    1.977223272    -0.026470654    -0.32992    0.237129    0.281221
F    1.321933714    3.203726552    -2.183335604    -0.321127    0.276348    -0.48665
F    1.503534868    3.859837787    0.727818465    0.033989    -0.099401    0.340528
F    4.514852766    2.5930664109999997    1.9763223680000002    1.207327    0.009999    -0.231164
F    -0.194734    1.7222165680000001    0.176997905    -0.428404    0.069559    0.206186
