12
Properties=species:S:1:pos:R:3:forces:R:3 energy=-185.62694317 pbc="F F F"
Al    -0.030667657    1.691781196    2.298351521    0.417211    0.809274    1.329514
Al    2.3339188959999997    2.652104425    1.5408201750000001    -0.69286    0.338981    -1.187029
Al    1.534822458    2.671549381    -0.44754645299999996    1.193878    0.512206    0.353155
F    0.922072752    3.261143719    3.010417232    -0.217027    0.413059    0.08693
F    -1.579238347    2.673463743    2.198453095    -0.638747    0.411752    -0.12461
F    -0.53071366    -0.005251818000000005    2.74093526    -0.332129    -0.781192    -0.129595
F    2.114889169    0.877083985    1.948715634    1.502311    -0.118338    -0.510676
F    3.248032942    1.4978128720000001    -0.441116254    0.372197    -0.42041    0.646652
F    1.1102847139999998    2.925388352    -2.0420230040000003    -0.420456    -0.169421    -0.231107
F    1.7463154680000001    4.352866587    0.864435065    0.517922    -0.05089    1.027863
F    3.7646231660000002    3.006451411    2.3106827680000004    -0.461771    -0.262201    -0.29661
F    -0.1938842    1.741117968    -0.195794095    -1.240528    -0.682819    -0.964487
