      12
SCF Done            -164.87130366
Al           -0.100902613         1.677399172         2.361569220
Al            2.498944896         2.615047425         1.713395175
Al            1.412966484         2.691663384        -0.667230454
F             0.994637778         3.143134136         2.853909263
F            -1.627556283         2.719702322         2.168099186
F            -0.518620671        -0.084163466         2.746228230
F             1.972228553         0.852655593         1.887100665
F             3.004810945         1.818283853        -0.017731216
F             1.060045809         3.026533333        -2.423016612
F             1.783814494         4.030960587         0.717442067
F             4.057147768         3.098867977         2.429390780
F            -0.091874191         1.761429010         0.014087893
