      12
SCF Done            -185.62694317
Al           -0.100902657         1.677399196         2.361569521
Al            2.498944896         2.615047425         1.713395175
Al            1.412966458         2.691663381        -0.667230453
F             0.994637752         3.143133719         2.853909232
F            -1.627556347         2.719702743         2.168099095
F            -0.518620660        -0.084163818         2.746228260
F             1.972228169         0.852655985         1.887100634
F             3.004810942         1.818283872        -0.017731254
F             1.060045714         3.026533352        -2.423017004
F             1.783814468         4.030960587         0.717442065
F             4.057148166         3.098868411         2.429390768
F            -0.091874200         1.761428968         0.014087905
