12
Properties=species:S:1:pos:R:3:forces:R:3 energy=-186.33978537 pbc="F F F"
Al    -1.600204561    2.7219523199999998    -1.108540291    0.088067    0.095053    0.097883
Al    -0.596210855    0.003249606    -2.374227374    -0.056959    0.000429    0.005987
Al    -2.234773076    -0.330140618    -0.5762191369999999    -0.000454    0.011926    -0.056017
F    -0.9086050410000001    4.169689136    -0.209828857    -0.061588    0.057283    -0.045505
F    -2.909232547    3.423546993    -2.171394292    -0.002769    0.045819    0.005972
F    -1.32558508    -1.680413227    -1.674568761    0.012725    0.002167    0.011998
F    -2.481547762    1.476928283    0.032439662    0.003197    -0.004388    0.003322
F    -3.009910563    -1.8015145320000001    0.334378253    0.035429    -0.109397    -0.033567
F    0.475663198    -1.092321841    -3.490371504    -0.009109    -0.118459    0.015305
F    -0.35579792499999996    1.909443314    -2.3001645309999996    0.004392    -0.004146    0.002011
F    -2.5179394569999998    0.44511665100000003    -2.3670661280000003    -0.005621    -0.009092    -0.006808
F    -0.365947268    0.287870939    -0.435067808    -0.007311    0.032804    -0.00058
