12
Properties=species:S:1:pos:R:3:forces:R:3 energy=-183.16410552 pbc="F F F"
Al    0.259617272    -2.351505111    -1.809279761    -0.089958    -0.346541    -0.081837
Al    2.01131993    -0.547334056    -0.705209424    0.323399    0.073399    0.157767
Al    -0.295889306    0.338960203    -1.9221463829999998    -0.233452    0.27313    -0.075933
F    3.706150488    -0.160154416    -0.14752552300000002    0.07121    0.01616    0.034739
F    -0.158708274    -4.052618592999999    -2.266413636    -0.019801    -0.076283    -0.018014
F    2.327870438    -1.8381129760000001    -2.192177889    1.19507    -1.842632    1.167622
F    1.972744595    0.822168939    -1.83318402    0.26839    2.158954    1.205699
F    -1.5723944220000001    1.652894031    -2.022697411    -0.051401    0.060137    -0.01672
F    -1.393069686    -0.9949092520000001    -1.108000569    -1.775958    -0.395135    -1.696072
F    -0.558744774    -1.456142809    -3.158486481    -2.400961    -0.552762    -0.341564
F    0.19670569599999999    0.851444598    -0.267495202    0.893389    2.316577    -0.148801
F    1.404595534    -2.50420441    -0.313925973    1.820072    -1.685003    -0.186884
