      12
SCF Done            -183.16410552
Al            0.270126272        -2.348853111        -1.832055761
Al            2.054124930        -0.536539056        -0.797974424
Al           -0.349202306         0.325514203        -1.806605383
F             3.647597488        -0.174921416        -0.020626523
F            -0.173084274        -4.056243593        -2.235256636
F             2.247250438        -2.075063976        -2.078796889
F             1.545981595         0.953136939        -2.049980020
F            -1.499463422         1.671287031        -2.180752411
F            -1.370138686        -1.324952252        -1.278864569
F            -0.474049774        -1.098955809        -3.220875481
F             0.649892696         0.727139598        -0.107968202
F             1.351161534        -2.301060410        -0.136785973
