12
-185.77729729
Al		0.27352541		-2.328545918		-1.82279871
Al		2.032697568		-0.541452561		-0.803107473
Al		-0.337184767		0.308604598		-1.797702931
F		3.6252714		-0.179983752		-0.031927026
F		-0.166677864		-4.03211803		-2.22990264
F		2.102881754		-1.812376725		-2.290112218
F		1.530887104		0.657593522		-2.266607368
F		-1.483082313		1.652340395		-2.175807915
F		-1.140452465		-1.274437757		-0.997670213
F		-0.11676357		-1.016208329		-3.221656009
F		0.504579795		0.396704098		-0.044139316
F		1.075665431		-2.069340891		-0.06760681
