12
-185.77729729
Al		0.272978984		-2.328683729		-1.821614487
Al		2.032151142		-0.541590372		-0.80192325
Al		-0.337731193		0.308466787		-1.796518708
F		3.62531343		-0.179973153		-0.032018118
F		-0.166635834		-4.032107431		-2.229993732
F		2.103387968		-1.812535848		-2.290706662
F		1.531269361		0.657969662		-2.267196718
F		-1.483040283		1.652350994		-2.175899007
F		-1.139868551		-1.274297549		-0.998193971
F		-0.11673837		-1.016194916		-3.222452326
F		0.504806649		0.396481579		-0.044870038
F		1.075768331		-2.06902815		-0.068332438
