12
-185.77729729
Al		0.272432558		-2.32882154		-1.820430264
Al		2.031604716		-0.541728183		-0.800739027
Al		-0.338277619		0.308328976		-1.795334485
F		3.62535546		-0.179962554		-0.03210921
F		-0.166593804		-4.032096832		-2.230084824
F		2.103894182		-1.812694971		-2.291301106
F		1.531651618		0.658345802		-2.267786068
F		-1.482998253		1.652361593		-2.175990099
F		-1.139284637		-1.274157341		-0.998717729
F		-0.11671317		-1.016181503		-3.223248643
F		0.505033503		0.39625906		-0.04560076
F		1.075871231		-2.068715409		-0.069058066
