12
-185.77729729
Al		0.272068274		-2.328913414		-1.819640782
Al		2.031240432		-0.541820057		-0.799949545
Al		-0.338641903		0.308237102		-1.794545003
F		3.62538348		-0.179955488		-0.032169938
F		-0.166565784		-4.032089766		-2.230145552
F		2.104231658		-1.812801053		-2.291697402
F		1.531906456		0.658596562		-2.268178968
F		-1.482970233		1.652368659		-2.176050827
F		-1.138895361		-1.274063869		-0.999066901
F		-0.11669637		-1.016172561		-3.223779521
F		0.505184739		0.396110714		-0.046087908
F		1.075939831		-2.068506915		-0.069541818
