12
-185.77729729
Al		0.275164688		-2.328132485		-1.826351379
Al		2.034336846		-0.541039128		-0.806660142
Al		-0.335545489		0.309018031		-1.8012556
F		3.62514531		-0.180015549		-0.03165375
F		-0.166803954		-4.032149827		-2.229629364
F		2.101363112		-1.811899356		-2.288328886
F		1.529740333		0.656465102		-2.264839318
F		-1.483208403		1.652308598		-2.175534639
F		-1.142204207		-1.274858381		-0.996098939
F		-0.11683917		-1.016248568		-3.219267058
F		0.503899233		0.397371655		-0.04194715
F		1.075356731		-2.070279114		-0.065429926
