12
-185.77729729
Al		0.27170399		-2.329005288		-1.8188513
Al		2.030876148		-0.541911931		-0.799160063
Al		-0.339006187		0.308145228		-1.793755521
F		3.6254115		-0.179948422		-0.032230666
F		-0.166537764		-4.0320827		-2.23020628
F		2.104569134		-1.812907135		-2.292093698
F		1.532161294		0.658847322		-2.268571868
F		-1.482942213		1.652375725		-2.176111555
F		-1.138506085		-1.273970397		-0.999416073
F		-0.11667957		-1.016163619		-3.224310399
F		0.505335975		0.395962368		-0.046575056
F		1.076008431		-2.068298421		-0.07002557
