12
-185.77729729
Al		0.271521848		-2.329051225		-1.818456559
Al		2.030694006		-0.541957868		-0.798765322
Al		-0.339188329		0.308099291		-1.79336078
F		3.62542551		-0.179944889		-0.03226103
F		-0.166523754		-4.032079167		-2.230236644
F		2.104737872		-1.812960176		-2.292291846
F		1.532288713		0.658972702		-2.268768318
F		-1.482928203		1.652379258		-2.176141919
F		-1.138311447		-1.273923661		-0.999590659
F		-0.11667117		-1.016159148		-3.224575838
F		0.505411593		0.395888195		-0.04681863
F		1.076042731		-2.068194174		-0.070267446
