12
-185.77729729
Al		0.271157564		-2.329143099		-1.817667077
Al		2.030329722		-0.542049742		-0.79797584
Al		-0.339552613		0.308007417		-1.792571298
F		3.62545353		-0.179937823		-0.032321758
F		-0.166495734		-4.032072101		-2.230297372
F		2.105075348		-1.813066258		-2.292688142
F		1.532543551		0.659223462		-2.269161218
F		-1.482900183		1.652386324		-2.176202647
F		-1.137922171		-1.273830189		-0.999939831
F		-0.11665437		-1.016150206		-3.225106716
F		0.505562829		0.395739849		-0.047305778
F		1.076111331		-2.06798568		-0.070751198
