12
-185.77729729
Al		0.270975422		-2.329189036		-1.817272336
Al		2.03014758		-0.542095679		-0.797581099
Al		-0.339734755		0.30796148		-1.792176557
F		3.62546754		-0.17993429		-0.032352122
F		-0.166481724		-4.032068568		-2.230327736
F		2.105244086		-1.813119299		-2.29288629
F		1.53267097		0.659348842		-2.269357668
F		-1.482886173		1.652389857		-2.176233011
F		-1.137727533		-1.273783453		-1.000114417
F		-0.11664597		-1.016145735		-3.225372155
F		0.505638447		0.395665676		-0.047549352
F		1.076145631		-2.067881433		-0.070993074
