12
-185.77729729
Al		0.270428996		-2.329326847		-1.816088113
Al		2.029601154		-0.54223349		-0.796396876
Al		-0.340281181		0.307823669		-1.790992334
F		3.62550957		-0.179923691		-0.032443214
F		-0.166439694		-4.032057969		-2.230418828
F		2.1057503		-1.813278422		-2.293480734
F		1.533053227		0.659724982		-2.269947018
F		-1.482844143		1.652400456		-2.176324103
F		-1.137143619		-1.273643245		-1.000638175
F		-0.11662077		-1.016132322		-3.226168472
F		0.505865301		0.395443157		-0.048280074
F		1.076248531		-2.067568692		-0.071718702
