12
-185.77729729
Al		0.269336144		-2.329602469		-1.813719667
Al		2.028508302		-0.542509112		-0.79402843
Al		-0.341374033		0.307548047		-1.788623888
F		3.62559363		-0.179902493		-0.032625398
F		-0.166355634		-4.032036771		-2.230601012
F		2.106762728		-1.813596668		-2.294669622
F		1.533817741		0.660477262		-2.271125718
F		-1.482760083		1.652421654		-2.176506287
F		-1.135975791		-1.273362829		-1.001685691
F		-0.11657037		-1.016105496		-3.227761106
F		0.506319009		0.394998119		-0.049741518
F		1.076454331		-2.06694321		-0.073169958
