12
-185.77729729
Al		0.267696866		-2.330015902		-1.810166998
Al		2.026869024		-0.542922545		-0.790475761
Al		-0.343013311		0.307134614		-1.785071219
F		3.62571972		-0.179870696		-0.032898674
F		-0.166229544		-4.032004974		-2.230874288
F		2.10828137		-1.814074037		-2.296452954
F		1.534964512		0.661605682		-2.272893768
F		-1.482633993		1.652453451		-2.176779563
F		-1.134224049		-1.272942205		-1.003256965
F		-0.11649477		-1.016065257		-3.230150057
F		0.506999571		0.394330562		-0.051933684
F		1.076763031		-2.066004987		-0.075346842
