12
-185.77729729
Al		0.266604014		-2.330291524		-1.807798552
Al		2.025776172		-0.543198167		-0.788107315
Al		-0.344106163		0.306858992		-1.782702773
F		3.62580378		-0.179849498		-0.033080858
F		-0.166145484		-4.031983776		-2.231056472
F		2.109293798		-1.814392283		-2.297641842
F		1.535729026		0.662357962		-2.274072468
F		-1.482549933		1.652474649		-2.176961747
F		-1.133056221		-1.272661789		-1.004304481
F		-0.11644437		-1.016038431		-3.231742691
F		0.507453279		0.393885524		-0.053395128
F		1.076968831		-2.065379505		-0.076798098
