12
-185.77729729
Al		0.265693304		-2.330521209		-1.805824847
Al		2.024865462		-0.543427852		-0.78613361
Al		-0.345016873		0.306629307		-1.780729068
F		3.62587383		-0.179831833		-0.033232678
F		-0.166075434		-4.031966111		-2.231208292
F		2.110137488		-1.814657488		-2.298632582
F		1.536366121		0.662984862		-2.275054718
F		-1.482479883		1.652492314		-2.177113567
F		-1.132083031		-1.272428109		-1.005177411
F		-0.11640237		-1.016016076		-3.233069886
F		0.507831369		0.393514659		-0.054612998
F		1.077140331		-2.06485827		-0.078007478
