12
-185.77729729
Al		0.265511162		-2.330567146		-1.805430106
Al		2.02468332		-0.543473789		-0.785738869
Al		-0.345199015		0.30658337		-1.780334327
F		3.62588784		-0.1798283		-0.033263042
F		-0.166061424		-4.031962578		-2.231238656
F		2.110306226		-1.814710529		-2.29883073
F		1.53649354		0.663110242		-2.275251168
F		-1.482465873		1.652495847		-2.177143931
F		-1.131888393		-1.272381373		-1.005351997
F		-0.11639397		-1.016011605		-3.233335325
F		0.507906987		0.393440486		-0.054856572
F		1.077174631		-2.064754023		-0.078249354
