12
-185.77729729
Al		0.264782594		-2.330750894		-1.803851142
Al		2.023954752		-0.543657537		-0.784159905
Al		-0.345927583		0.306399622		-1.778755363
F		3.62594388		-0.179814168		-0.033384498
F		-0.166005384		-4.031948446		-2.231360112
F		2.110981178		-1.814922693		-2.299623322
F		1.537003216		0.663611762		-2.276036968
F		-1.482409833		1.652509979		-2.177265387
F		-1.131109841		-1.272194429		-1.006050341
F		-0.11636037		-1.015993721		-3.234397081
F		0.508209459		0.393143794		-0.055830868
F		1.077311831		-2.064337035		-0.079216858
