12
-185.77729729
Al		0.264236168		-2.330888705		-1.802666919
Al		2.023408326		-0.543795348		-0.782975682
Al		-0.346474009		0.306261811		-1.77757114
F		3.62598591		-0.179803569		-0.03347559
F		-0.165963354		-4.031937847		-2.231451204
F		2.111487392		-1.815081816		-2.300217766
F		1.537385473		0.663987902		-2.276626318
F		-1.482367803		1.652520578		-2.177356479
F		-1.130525927		-1.272054221		-1.006574099
F		-0.11633517		-1.015980308		-3.235193398
F		0.508436313		0.392921275		-0.05656159
F		1.077414731		-2.064024294		-0.079942486
