12
-185.77729729
Al		0.263143316		-2.331164327		-1.800298473
Al		2.022315474		-0.54407097		-0.780607236
Al		-0.347566861		0.305986189		-1.775202694
F		3.62606997		-0.179782371		-0.033657774
F		-0.165879294		-4.031916649		-2.231633388
F		2.11249982		-1.815400062		-2.301406654
F		1.538149987		0.664740182		-2.277805018
F		-1.482283743		1.652541776		-2.177538663
F		-1.129358099		-1.271773805		-1.007621615
F		-0.11628477		-1.015953482		-3.236786032
F		0.508890021		0.392476237		-0.058023034
F		1.077620531		-2.063398812		-0.081393742
