12
-185.77729729
Al		0.262961174		-2.331210264		-1.799903732
Al		2.022133332		-0.544116907		-0.780212495
Al		-0.347749003		0.305940252		-1.774807953
F		3.62608398		-0.179778838		-0.033688138
F		-0.165865284		-4.031913116		-2.231663752
F		2.112668558		-1.815453103		-2.301604802
F		1.538277406		0.664865562		-2.278001468
F		-1.482269733		1.652545309		-2.177569027
F		-1.129163461		-1.271727069		-1.007796201
F		-0.11627637		-1.015949011		-3.237051471
F		0.508965639		0.392402064		-0.058266608
F		1.077654831		-2.063294565		-0.081635618
