12
-185.77729729
Al		0.274253978		-2.32836217		-1.824377674
Al		2.033426136		-0.541268813		-0.804686437
Al		-0.336456199		0.308788346		-1.799281895
F		3.62521536		-0.179997884		-0.03180557
F		-0.166733904		-4.032132162		-2.229781184
F		2.102206802		-1.812164561		-2.289319626
F		1.530377428		0.657092002		-2.265821568
F		-1.483138353		1.652326263		-2.175686459
F		-1.141231017		-1.274624701		-0.996971869
F		-0.11679717		-1.016226213		-3.220594253
F		0.504277323		0.39700079		-0.04316502
F		1.075528231		-2.069757879		-0.066639306
