12
-185.77729729
Al		0.262779032		-2.331256201		-1.799508991
Al		2.02195119		-0.544162844		-0.779817754
Al		-0.347931145		0.305894315		-1.774413212
F		3.62609799		-0.179775305		-0.033718502
F		-0.165851274		-4.031909583		-2.231694116
F		2.112837296		-1.815506144		-2.30180295
F		1.538404825		0.664990942		-2.278197918
F		-1.482255723		1.652548842		-2.177599391
F		-1.128968823		-1.271680333		-1.007970787
F		-0.11626797		-1.01594454		-3.23731691
F		0.509041257		0.392327891		-0.058510182
F		1.077689131		-2.063190318		-0.081877494
