12
-185.77729729
Al		0.260957612		-2.331715571		-1.795561581
Al		2.02012977		-0.544622214		-0.775870344
Al		-0.349752565		0.305434945		-1.770465802
F		3.62623809		-0.179739975		-0.034022142
F		-0.165711174		-4.031874253		-2.231997756
F		2.114524676		-1.816036554		-2.30378443
F		1.539679015		0.666244742		-2.280162418
F		-1.482115623		1.652584172		-2.177903031
F		-1.127022443		-1.271212973		-1.009716647
F		-0.11618397		-1.01589983		-3.2399713
F		0.509797437		0.391586161		-0.060945922
F		1.078032131		-2.062147848		-0.084296254
