12
-185.77729729
Al		0.260411186		-2.331853382		-1.794377358
Al		2.019583344		-0.544760025		-0.774686121
Al		-0.350298991		0.305297134		-1.769281579
F		3.62628012		-0.179729376		-0.034113234
F		-0.165669144		-4.031863654		-2.232088848
F		2.11503089		-1.816195677		-2.304378874
F		1.540061272		0.666620882		-2.280751768
F		-1.482073593		1.652594771		-2.177994123
F		-1.126438529		-1.271072765		-1.010240405
F		-0.11615877		-1.015886417		-3.240767617
F		0.510024291		0.391363642		-0.061676644
F		1.078135031		-2.061835107		-0.085021882
