12
-185.77729729
Al		0.259682618		-2.33203713		-1.792798394
Al		2.018854776		-0.544943773		-0.773107157
Al		-0.351027559		0.305113386		-1.767702615
F		3.62633616		-0.179715244		-0.03423469
F		-0.165613104		-4.031849522		-2.232210304
F		2.115705842		-1.816407841		-2.305171466
F		1.540570948		0.667122402		-2.281537568
F		-1.482017553		1.652608903		-2.178115579
F		-1.125659977		-1.270885821		-1.010938749
F		-0.11612517		-1.015868533		-3.241829373
F		0.510326763		0.39106695		-0.06265094
F		1.078272231		-2.061418119		-0.085989386
