12
-185.77729729
Al		0.259318334		-2.332129004		-1.792008912
Al		2.018490492		-0.545035647		-0.772317675
Al		-0.351391843		0.305021512		-1.766913133
F		3.62636418		-0.179708178		-0.034295418
F		-0.165585084		-4.031842456		-2.232271032
F		2.116043318		-1.816513923		-2.305567762
F		1.540825786		0.667373162		-2.281930468
F		-1.481989533		1.652615969		-2.178176307
F		-1.125270701		-1.270792349		-1.011287921
F		-0.11610837		-1.015859591		-3.242360251
F		0.510477999		0.390918604		-0.063138088
F		1.078340831		-2.061209625		-0.086473138
