12
-185.77729729
Al		0.259136192		-2.332174941		-1.791614171
Al		2.01830835		-0.545081584		-0.771922934
Al		-0.351573985		0.304975575		-1.766518392
F		3.62637819		-0.179704645		-0.034325782
F		-0.165571074		-4.031838923		-2.232301396
F		2.116212056		-1.816566964		-2.30576591
F		1.540953205		0.667498542		-2.282126918
F		-1.481975523		1.652619502		-2.178206671
F		-1.125076063		-1.270745613		-1.011462507
F		-0.11609997		-1.01585512		-3.24262569
F		0.510553617		0.390844431		-0.063381662
F		1.078375131		-2.061105378		-0.086715014
