12
-185.77729729
Al		0.25895405		-2.332220878		-1.79121943
Al		2.018126208		-0.545127521		-0.771528193
Al		-0.351756127		0.304929638		-1.766123651
F		3.6263922		-0.179701112		-0.034356146
F		-0.165557064		-4.03183539		-2.23233176
F		2.116380794		-1.816620005		-2.305964058
F		1.541080624		0.667623922		-2.282323368
F		-1.481961513		1.652623035		-2.178237035
F		-1.124881425		-1.270698877		-1.011637093
F		-0.11609157		-1.015850649		-3.242891129
F		0.510629235		0.390770258		-0.063625236
F		1.078409431		-2.061001131		-0.08695689
