12
-185.77729729
Al		0.258771908		-2.332266815		-1.790824689
Al		2.017944066		-0.545173458		-0.771133452
Al		-0.351938269		0.304883701		-1.76572891
F		3.62640621		-0.179697579		-0.03438651
F		-0.165543054		-4.031831857		-2.232362124
F		2.116549532		-1.816673046		-2.306162206
F		1.541208043		0.667749302		-2.282519818
F		-1.481947503		1.652626568		-2.178267399
F		-1.124686787		-1.270652141		-1.011811679
F		-0.11608317		-1.015846178		-3.243156568
F		0.510704853		0.390696085		-0.06386881
F		1.078443731		-2.060896884		-0.087198766
