12
-185.77729729
Al		0.258407624		-2.332358689		-1.790035207
Al		2.017579782		-0.545265332		-0.77034397
Al		-0.352302553		0.304791827		-1.764939428
F		3.62643423		-0.179690513		-0.034447238
F		-0.165515034		-4.031824791		-2.232422852
F		2.116887008		-1.816779128		-2.306558502
F		1.541462881		0.668000062		-2.282912718
F		-1.481919483		1.652633634		-2.178328127
F		-1.124297511		-1.270558669		-1.012160851
F		-0.11606637		-1.015837236		-3.243687446
F		0.510856089		0.390547739		-0.064355958
F		1.078512331		-2.06068839		-0.087682518
