12
-185.77729729
Al		0.277350392		-2.327581241		-1.831088271
Al		2.03652255		-0.540487884		-0.811397034
Al		-0.333359785		0.309569275		-1.805992492
F		3.62497719		-0.180057945		-0.031289382
F		-0.166972074		-4.032192223		-2.229264996
F		2.099338256		-1.811262864		-2.28595111
F		1.528211305		0.654960542		-2.262481918
F		-1.483376523		1.652266202		-2.175170271
F		-1.144539863		-1.275419213		-0.994003907
F		-0.11693997		-1.01630222		-3.21608179
F		0.502991817		0.398261731		-0.039024262
F		1.074945131		-2.071530078		-0.062527414
