12
-185.77729729
Al		0.277532534		-2.327535304		-1.831483012
Al		2.036704692		-0.540441947		-0.811791775
Al		-0.333177643		0.309615212		-1.806387233
F		3.62496318		-0.180061478		-0.031259018
F		-0.166986084		-4.032195756		-2.229234632
F		2.099169518		-1.811209823		-2.285752962
F		1.528083886		0.654835162		-2.262285468
F		-1.483390533		1.652262669		-2.175139907
F		-1.144734501		-1.275465949		-0.993829321
F		-0.11694837		-1.016306691		-3.215816351
F		0.502916199		0.398335904		-0.038780688
F		1.074910831		-2.071634325		-0.062285538
