12
-185.77729729
Al		0.275893256		-2.327948737		-1.827930343
Al		2.035065414		-0.54085538		-0.808239106
Al		-0.334816921		0.309201779		-1.802834564
F		3.62508927		-0.180029681		-0.031532294
F		-0.166859994		-4.032163959		-2.229507908
F		2.10068816		-1.811687192		-2.287536294
F		1.529230657		0.655963582		-2.264053518
F		-1.483264443		1.652294466		-2.175413183
F		-1.142982759		-1.275045325		-0.995400595
F		-0.11687277		-1.016266452		-3.218205302
F		0.503596761		0.397668347		-0.040972854
F		1.075219531		-2.070696102		-0.064462422
