12
-185.77729729
Al		0.27990038		-2.326938123		-1.836614645
Al		2.039072538		-0.539844766		-0.816923408
Al		-0.330809797		0.310212393		-1.811518866
F		3.62478105		-0.180107407		-0.030864286
F		-0.167168214		-4.032241685		-2.2288399
F		2.096975924		-1.81052029		-2.283177038
F		1.526427439		0.653205222		-2.259731618
F		-1.483572663		1.65221674		-2.174745175
F		-1.147264795		-1.276073517		-0.991559703
F		-0.11705757		-1.016364814		-3.212365644
F		0.501933165		0.399300153		-0.035614226
F		1.074464931		-2.072989536		-0.05914115
