12
-185.77729729
Al		0.280082522		-2.326892186		-1.837009386
Al		2.03925468		-0.539798829		-0.817318149
Al		-0.330627655		0.31025833		-1.811913607
F		3.62476704		-0.18011094		-0.030833922
F		-0.167182224		-4.032245218		-2.228809536
F		2.096807186		-1.810467249		-2.28297889
F		1.52630002		0.653079842		-2.259535168
F		-1.483586673		1.652213207		-2.174714811
F		-1.147459433		-1.276120253		-0.991385117
F		-0.11706597		-1.016369285		-3.212100205
F		0.501857547		0.399374326		-0.035370652
F		1.074430631		-2.073093783		-0.058899274
