12
-185.77729729
Al		0.276075398		-2.3279028		-1.828325084
Al		2.035247556		-0.540809443		-0.808633847
Al		-0.334634779		0.309247716		-1.803229305
F		3.62507526		-0.180033214		-0.03150193
F		-0.166874004		-4.032167492		-2.229477544
F		2.100519422		-1.811634151		-2.287338146
F		1.529103238		0.655838202		-2.263857068
F		-1.483278453		1.652290933		-2.175382819
F		-1.143177397		-1.275092061		-0.995226009
F		-0.11688117		-1.016270923		-3.217939863
F		0.503521143		0.39774252		-0.04072928
F		1.075185231		-2.070800349		-0.064220546
