12
-185.77729729
Al		0.281903942		-2.326432816		-1.840956796
Al		2.0410761		-0.539339459		-0.821265559
Al		-0.328806235		0.3107177		-1.815861017
F		3.62462694		-0.18014627		-0.030530282
F		-0.167322324		-4.032280548		-2.228505896
F		2.095119806		-1.809936839		-2.28099741
F		1.52502583		0.651826042		-2.257570668
F		-1.483726773		1.652177877		-2.174411171
F		-1.149405813		-1.276587613		-0.989639257
F		-0.11714997		-1.016413995		-3.209445815
F		0.501101367		0.400116056		-0.032934912
F		1.074087631		-2.074136253		-0.056480514
