12
-185.77729729
Al		0.282086084		-2.326386879		-1.841351537
Al		2.041258242		-0.539293522		-0.8216603
Al		-0.328624093		0.310763637		-1.816255758
F		3.62461293		-0.180149803		-0.030499918
F		-0.167336334		-4.032284081		-2.228475532
F		2.094951068		-1.809883798		-2.280799262
F		1.524898411		0.651700662		-2.257374218
F		-1.483740783		1.652174344		-2.174380807
F		-1.149600451		-1.276634349		-0.989464671
F		-0.11715837		-1.016418466		-3.209180376
F		0.501025749		0.400190229		-0.032691338
F		1.074053331		-2.0742405		-0.056238638
