12
-185.77729729
Al		0.282268226		-2.326340942		-1.841746278
Al		2.041440384		-0.539247585		-0.822055041
Al		-0.328441951		0.310809574		-1.816650499
F		3.62459892		-0.180153336		-0.030469554
F		-0.167350344		-4.032287614		-2.228445168
F		2.09478233		-1.809830757		-2.280601114
F		1.524770992		0.651575282		-2.257177768
F		-1.483754793		1.652170811		-2.174350443
F		-1.149795089		-1.276681085		-0.989290085
F		-0.11716677		-1.016422937		-3.208914937
F		0.500950131		0.400264402		-0.032447764
F		1.074019031		-2.074344747		-0.055996762
