12
-185.77729729
Al		0.282450368		-2.326295005		-1.842141019
Al		2.041622526		-0.539201648		-0.822449782
Al		-0.328259809		0.310855511		-1.81704524
F		3.62458491		-0.180156869		-0.03043919
F		-0.167364354		-4.032291147		-2.228414804
F		2.094613592		-1.809777716		-2.280402966
F		1.524643573		0.651449902		-2.256981318
F		-1.483768803		1.652167278		-2.174320079
F		-1.149989727		-1.276727821		-0.989115499
F		-0.11717517		-1.016427408		-3.208649498
F		0.500874513		0.400338575		-0.03220419
F		1.073984731		-2.074448994		-0.055754886
