12
-185.77729729
Al		0.28263251		-2.326249068		-1.84253576
Al		2.041804668		-0.539155711		-0.822844523
Al		-0.328077667		0.310901448		-1.817439981
F		3.6245709		-0.180160402		-0.030408826
F		-0.167378364		-4.03229468		-2.22838444
F		2.094444854		-1.809724675		-2.280204818
F		1.524516154		0.651324522		-2.256784868
F		-1.483782813		1.652163745		-2.174289715
F		-1.150184365		-1.276774557		-0.988940913
F		-0.11718357		-1.016431879		-3.208384059
F		0.500798895		0.400412748		-0.031960616
F		1.073950431		-2.074553241		-0.05551301
