12
-185.77729729
Al		0.283725362		-2.325973446		-1.844904206
Al		2.04289752		-0.538880089		-0.825212969
Al		-0.326984815		0.31117707		-1.819808427
F		3.62448684		-0.1801816		-0.030226642
F		-0.167462424		-4.032315878		-2.228202256
F		2.093432426		-1.809406429		-2.27901593
F		1.52375164		0.650572242		-2.255606168
F		-1.483866873		1.652142547		-2.174107531
F		-1.151352193		-1.277054973		-0.987893397
F		-0.11723397		-1.016458705		-3.206791425
F		0.500345187		0.400857786		-0.030499172
F		1.073744631		-2.075178723		-0.054061754
