12
-185.77729729
Al		0.283907504		-2.325927509		-1.845298947
Al		2.043079662		-0.538834152		-0.82560771
Al		-0.326802673		0.311223007		-1.820203168
F		3.62447283		-0.180185133		-0.030196278
F		-0.167476434		-4.032319411		-2.228171892
F		2.093263688		-1.809353388		-2.278817782
F		1.523624221		0.650446862		-2.255409718
F		-1.483880883		1.652139014		-2.174077167
F		-1.151546831		-1.277101709		-0.987718811
F		-0.11724237		-1.016463176		-3.206525986
F		0.500269569		0.400931959		-0.030255598
F		1.073710331		-2.07528297		-0.053819878
