12
-185.77729729
Al		0.284271788		-2.325835635		-1.846088429
Al		2.043443946		-0.538742278		-0.826397192
Al		-0.326438389		0.311314881		-1.82099265
F		3.62444481		-0.180192199		-0.03013555
F		-0.167504454		-4.032326477		-2.228111164
F		2.092926212		-1.809247306		-2.278421486
F		1.523369383		0.650196102		-2.255016818
F		-1.483908903		1.652131948		-2.174016439
F		-1.151936107		-1.277195181		-0.987369639
F		-0.11725917		-1.016472118		-3.205995108
F		0.500118333		0.401080305		-0.02976845
F		1.073641731		-2.075491464		-0.053336126
