12
-185.77729729
Al		0.284636072		-2.325743761		-1.846877911
Al		2.04380823		-0.538650404		-0.827186674
Al		-0.326074105		0.311406755		-1.821782132
F		3.62441679		-0.180199265		-0.030074822
F		-0.167532474		-4.032333543		-2.228050436
F		2.092588736		-1.809141224		-2.27802519
F		1.523114545		0.649945342		-2.254623918
F		-1.483936923		1.652124882		-2.173955711
F		-1.152325383		-1.277288653		-0.987020467
F		-0.11727597		-1.01648106		-3.20546423
F		0.499967097		0.401228651		-0.029281302
F		1.073573131		-2.075699958		-0.052852374
