12
-185.77729729
Al		0.284818214		-2.325697824		-1.847272652
Al		2.043990372		-0.538604467		-0.827581415
Al		-0.325891963		0.311452692		-1.822176873
F		3.62440278		-0.180202798		-0.030044458
F		-0.167546484		-4.032337076		-2.228020072
F		2.092419998		-1.809088183		-2.277827042
F		1.522987126		0.649819962		-2.254427468
F		-1.483950933		1.652121349		-2.173925347
F		-1.152520021		-1.277335389		-0.986845881
F		-0.11728437		-1.016485531		-3.205198791
F		0.499891479		0.401302824		-0.029037728
F		1.073538831		-2.075804205		-0.052610498
