12
-185.77729729
Al		0.285546782		-2.325514076		-1.848851616
Al		2.04471894		-0.538420719		-0.829160379
Al		-0.325163395		0.31163644		-1.823755837
F		3.62434674		-0.18021693		-0.029923002
F		-0.167602524		-4.032351208		-2.227898616
F		2.091745046		-1.808876019		-2.27703445
F		1.52247745		0.649318442		-2.253641668
F		-1.484006973		1.652107217		-2.173803891
F		-1.153298573		-1.277522333		-0.986147537
F		-0.11731797		-1.016503415		-3.204137035
F		0.499589007		0.401599516		-0.028063432
F		1.073401631		-2.076221193		-0.051642994
