12
-185.77729729
Al		0.285728924		-2.325468139		-1.849246357
Al		2.044901082		-0.538374782		-0.82955512
Al		-0.324981253		0.311682377		-1.824150578
F		3.62433273		-0.180220463		-0.029892638
F		-0.167616534		-4.032354741		-2.227868252
F		2.091576308		-1.808822978		-2.276836302
F		1.522350031		0.649193062		-2.253445218
F		-1.484020983		1.652103684		-2.173773527
F		-1.153493211		-1.277569069		-0.985972951
F		-0.11732637		-1.016507886		-3.203871596
F		0.499513389		0.401673689		-0.027819858
F		1.073367331		-2.07632544		-0.051401118
