12
-185.77729729
Al		0.288643196		-2.324733147		-1.855562213
Al		2.047815354		-0.53763979		-0.835870976
Al		-0.322066981		0.312417369		-1.830466434
F		3.62410857		-0.180276991		-0.029406814
F		-0.167840694		-4.032411269		-2.227382428
F		2.0888765		-1.807974322		-2.273665934
F		1.520311327		0.647186982		-2.250302018
F		-1.484245143		1.652047156		-2.173287703
F		-1.156607419		-1.278316845		-0.983179575
F		-0.11746077		-1.016579422		-3.199624572
F		0.498303501		0.402860457		-0.023922674
F		1.072818531		-2.077993392		-0.047531102
