12
-185.77729729
Al		0.28900748		-2.324641273		-1.856351695
Al		2.048179638		-0.537547916		-0.836660458
Al		-0.321702697		0.312509243		-1.831255916
F		3.62408055		-0.180284057		-0.029346086
F		-0.167868714		-4.032418335		-2.2273217
F		2.088539024		-1.80786824		-2.273269638
F		1.520056489		0.646936222		-2.249909118
F		-1.484273163		1.65204009		-2.173226975
F		-1.156996695		-1.278410317		-0.982830403
F		-0.11747757		-1.016588364		-3.199093694
F		0.498152265		0.403008803		-0.023435526
F		1.072749931		-2.078201886		-0.04704735
