12
-185.77729729
Al		0.289371764		-2.324549399		-1.857141177
Al		2.048543922		-0.537456042		-0.83744994
Al		-0.321338413		0.312601117		-1.832045398
F		3.62405253		-0.180291123		-0.029285358
F		-0.167896734		-4.032425401		-2.227260972
F		2.088201548		-1.807762158		-2.272873342
F		1.519801651		0.646685462		-2.249516218
F		-1.484301183		1.652033024		-2.173166247
F		-1.157385971		-1.278503789		-0.982481231
F		-0.11749437		-1.016597306		-3.198562816
F		0.498001029		0.403157149		-0.022948378
F		1.072681331		-2.07841038		-0.046563598
