12
-185.77729729
Al		0.289736048		-2.324457525		-1.857930659
Al		2.048908206		-0.537364168		-0.838239422
Al		-0.320974129		0.312692991		-1.83283488
F		3.62402451		-0.180298189		-0.02922463
F		-0.167924754		-4.032432467		-2.227200244
F		2.087864072		-1.807656076		-2.272477046
F		1.519546813		0.646434702		-2.249123318
F		-1.484329203		1.652025958		-2.173105519
F		-1.157775247		-1.278597261		-0.982132059
F		-0.11751117		-1.016606248		-3.198031938
F		0.497849793		0.403305495		-0.02246123
F		1.072612731		-2.078618874		-0.046079846
