12
-185.77729729
Al		0.290464616		-2.324273777		-1.859509623
Al		2.049636774		-0.53718042		-0.839818386
Al		-0.320245561		0.312876739		-1.834413844
F		3.62396847		-0.180312321		-0.029103174
F		-0.167980794		-4.032446599		-2.227078788
F		2.08718912		-1.807443912		-2.271684454
F		1.519037137		0.645933182		-2.248337518
F		-1.484385243		1.652011826		-2.172984063
F		-1.158553799		-1.278784205		-0.981433715
F		-0.11754477		-1.016624132		-3.196970182
F		0.497547321		0.403602187		-0.021486934
F		1.072475531		-2.079035862		-0.045112342
