12
-185.77729729
Al		0.290646758		-2.32422784		-1.859904364
Al		2.049818916		-0.537134483		-0.840213127
Al		-0.320063419		0.312922676		-1.834808585
F		3.62395446		-0.180315854		-0.02907281
F		-0.167994804		-4.032450132		-2.227048424
F		2.087020382		-1.807390871		-2.271486306
F		1.518909718		0.645807802		-2.248141068
F		-1.484399253		1.652008293		-2.172953699
F		-1.158748437		-1.278830941		-0.981259129
F		-0.11755317		-1.016628603		-3.196704743
F		0.497471703		0.40367636		-0.02124336
F		1.072441231		-2.079140109		-0.044870466
