12
-185.77729729
Al		0.291375326		-2.324044092		-1.861483328
Al		2.050547484		-0.536950735		-0.841792091
Al		-0.319334851		0.313106424		-1.836387549
F		3.62389842		-0.180329986		-0.028951354
F		-0.168050844		-4.032464264		-2.226926968
F		2.08634543		-1.807178707		-2.270693714
F		1.518400042		0.645306282		-2.247355268
F		-1.484455293		1.651994161		-2.172832243
F		-1.159526989		-1.279017885		-0.980560785
F		-0.11758677		-1.016646487		-3.195642987
F		0.497169231		0.403973052		-0.020269064
F		1.072304031		-2.079557097		-0.043902962
