12
-185.77729729
Al		0.293014604		-2.323630659		-1.865035997
Al		2.052186762		-0.536537302		-0.84534476
Al		-0.317695573		0.313519857		-1.839940218
F		3.62377233		-0.180361783		-0.028678078
F		-0.168176934		-4.032496061		-2.226653692
F		2.084826788		-1.806701338		-2.268910382
F		1.517253271		0.644177862		-2.245587218
F		-1.484581383		1.651962364		-2.172558967
F		-1.161278731		-1.279438509		-0.978989511
F		-0.11766237		-1.016686726		-3.193254036
F		0.496488669		0.404640609		-0.018076898
F		1.071995331		-2.08049532		-0.041726078
