12
-185.77729729
Al		0.293196746		-2.323584722		-1.865430738
Al		2.052368904		-0.536491365		-0.845739501
Al		-0.317513431		0.313565794		-1.840334959
F		3.62375832		-0.180365316		-0.028647714
F		-0.168190944		-4.032499594		-2.226623328
F		2.08465805		-1.806648297		-2.268712234
F		1.517125852		0.644052482		-2.245390768
F		-1.484595393		1.651958831		-2.172528603
F		-1.161473369		-1.279485245		-0.978814925
F		-0.11767077		-1.016691197		-3.192988597
F		0.496413051		0.404714782		-0.017833324
F		1.071961031		-2.080599567		-0.041484202
