12
-185.77729729
Al		0.29356103		-2.323492848		-1.86622022
Al		2.052733188		-0.536399491		-0.846528983
Al		-0.317149147		0.313657668		-1.841124441
F		3.6237303		-0.180372382		-0.028586986
F		-0.168218964		-4.03250666		-2.2265626
F		2.084320574		-1.806542215		-2.268315938
F		1.516871014		0.643801722		-2.244997868
F		-1.484623413		1.651951765		-2.172467875
F		-1.161862645		-1.279578717		-0.978465753
F		-0.11768757		-1.016700139		-3.192457719
F		0.496261815		0.404863128		-0.017346176
F		1.071892431		-2.080808061		-0.04100045
