12
-187.38518821
Al		1.28785918		0.042848817		2.441073073
Al		1.365667		1.08558		-0.1300675
Al		-0.313870062		0.82968975		-2.325011773
F		-1.790123172		-0.230449453		-2.155537606
F		2.238047253		-0.347795453		0.808456952
F		0.045867139		1.82499429		-3.795785333
F		-0.36109431		1.770709753		-0.683828049
F		2.500782557		2.522523012		-0.274316443
F		1.372471239		0.077412405		-1.767135754
F		0.374106117		1.409544929		1.503827039
F		2.540198969		0.599668076		3.626321437
F		-0.099010325		-1.061200352		2.876512071
