12
-187.38518821
Al		1.27531318		0.057480417		2.447704273
Al		1.1523478		1.3343712		-0.0173047
Al		-0.326416062		0.84432135		-2.318380573
F		-1.503162372		-0.565127053		-2.307227206
F		1.818352053		-0.358164653		0.682395752
F		0.054783139		1.81459509		-3.800498933
F		-0.35618751		2.159231353		-0.886731249
F		2.709808157		2.278739412		-0.384810043
F		1.109224839		-0.009810795		-1.427671354
F		0.535460517		1.721212529		1.766449439
F		2.549114969		0.589268876		3.621607837
F		0.187950475		-1.395877952		2.724822471
