12
-187.38518821
Al		1.276359062		0.056261516		2.447152437
Al		1.1701244		1.3136386		-0.0267016
Al		-0.325370185		0.843102364		-2.318933473
F		-1.527075404		-0.537236944		-2.294587877
F		1.853326592		-0.357300554		0.692900913
F		0.054040984		1.815462454		-3.800105994
F		-0.356596426		2.126854481		-0.869822095
F		2.692389353		2.299054709		-0.375602244
F		1.131162223		-0.002542072		-1.455960177
F		0.522014471		1.695240423		1.744564302
F		2.54837273		0.590136219		3.622000209
F		0.164037559		-1.367987659		2.737463386
