12
-187.38518821
Al		1.28367718		0.047726017		2.443283473
Al		1.2945606		1.1685104		-0.0924799
Al		-0.318052062		0.83456695		-2.322801373
F		-1.694469572		-0.342008653		-2.206100806
F		2.098148853		-0.351251853		0.766436552
F		0.048839139		1.82152789		-3.797356533
F		-0.35945871		1.900216953		-0.751462449
F		2.570457757		2.441261812		-0.311147643
F		1.284722439		0.048338005		-1.653980954
F		0.427890917		1.513434129		1.591367839
F		2.543170969		0.596201676		3.624750237
F		-0.003356725		-1.172759552		2.825948871
