12
-187.38518821
Al		1.28995018		0.040410217		2.439967873
Al		1.4012202		1.0441148		-0.1488613
Al		-0.311779062		0.82725115		-2.326116973
F		-1.837949972		-0.174669853		-2.130256006
F		2.307996453		-0.346067253		0.829467152
F		0.044381139		1.82672749		-3.794999733
F		-0.36191211		1.705956153		-0.650010849
F		2.465944957		2.563153612		-0.255900843
F		1.416345639		0.091949605		-1.823713154
F		0.347213717		1.357600329		1.460056639
F		2.538712969		0.601401276		3.627107037
F		-0.146837125		-1.005420752		2.901793671
