12
-187.38518821
Al		1.27426768		0.058699717		2.448256873
Al		1.1345712		1.3551038		-0.0079078
Al		-0.327461562		0.84554065		-2.317827973
F		-1.479248972		-0.593016853		-2.319868006
F		1.783377453		-0.359028753		0.671890652
F		0.055526139		1.81372849		-3.800891733
F		-0.35577861		2.191608153		-0.903639849
F		2.727226957		2.258424112		-0.394017843
F		1.087287639		-0.017079395		-1.399382654
F		0.548906717		1.747184829		1.788334639
F		2.549857969		0.588402276		3.621215037
F		0.211863875		-1.423767752		2.712181671
