12
-187.38518821
Al		1.27740418		0.055041817		2.446599073
Al		1.187901		1.292906		-0.0360985
Al		-0.324325062		0.84188275		-2.319485773
F		-1.550989172		-0.509347453		-2.281945606
F		1.888301253		-0.356436453		0.703405952
F		0.053297139		1.81632829		-3.799713333
F		-0.35700531		2.094477753		-0.852914049
F		2.674970557		2.319370012		-0.366394443
F		1.153099239		0.004726405		-1.484248754
F		0.508568117		1.669267929		1.722679039
F		2.547628969		0.591002076		3.622393437
F		0.140123675		-1.340098352		2.750104071
