12
-187.38518821
Al		1.27844968		0.053822517		2.446046473
Al		1.2056776		1.2721734		-0.0454954
Al		-0.323279562		0.84066345		-2.320038373
F		-1.574902572		-0.481457653		-2.269304806
F		1.923275853		-0.355572353		0.713911052
F		0.052554139		1.81719489		-3.799320533
F		-0.35741421		2.062100953		-0.836005449
F		2.657551757		2.339685312		-0.357186643
F		1.175036439		0.011995005		-1.512537454
F		0.495121917		1.643295629		1.700793839
F		2.546885969		0.591868676		3.622786237
F		0.116210275		-1.312208552		2.762744871
