12
-187.38518821
Al		1.284723062		0.046507116		2.442730837
Al		1.3123372		1.1477778		-0.1018768
Al		-0.317006185		0.833347964		-2.323354273
F		-1.718382604		-0.314118544		-2.193460677
F		2.133123392		-0.350387754		0.776941713
F		0.048096984		1.822395254		-3.796963594
F		-0.359867626		1.867840081		-0.734554095
F		2.553038953		2.461577109		-0.301939844
F		1.306659823		0.055606728		-1.682269777
F		0.414444871		1.487462023		1.569482702
F		2.54242873		0.597069019		3.625142609
F		-0.027269641		-1.144869259		2.838590586
