12
-187.38518821
Al		1.27635868		0.056261117		2.447151673
Al		1.1701244		1.3136386		-0.0267016
Al		-0.325370562		0.84310205		-2.318933173
F		-1.527075772		-0.537237253		-2.294586406
F		1.853326653		-0.357300553		0.692900852
F		0.054040139		1.81546169		-3.800106133
F		-0.35659641		2.126854553		-0.869822649
F		2.692389357		2.299054712		-0.375602243
F		1.131162039		-0.002542195		-1.455960054
F		0.522014317		1.695240229		1.744564239
F		2.548371969		0.590135476		3.622000637
F		0.164037075		-1.367988152		2.737463271
