12
-187.38518821
Al		1.28472268		0.046506717		2.442730873
Al		1.3123372		1.1477778		-0.1018768
Al		-0.317006562		0.83334765		-2.323353973
F		-1.718382972		-0.314118853		-2.193460006
F		2.133123453		-0.350387753		0.776941652
F		0.048096139		1.82239449		-3.796963733
F		-0.35986761		1.867840153		-0.734553849
F		2.553038957		2.461577112		-0.301939843
F		1.306659639		0.055606605		-1.682269654
F		0.414444717		1.487461829		1.569482639
F		2.542427969		0.597068276		3.625143037
F		-0.027270125		-1.144869752		2.838589671
