12
-187.38518821
Al		1.28054068		0.051383917		2.444941273
Al		1.2412308		1.2307082		-0.0642892
Al		-0.321188562		0.83822485		-2.321143573
F		-1.622729372		-0.425678053		-2.244023206
F		1.993225053		-0.353844153		0.734921252
F		0.051068139		1.81892809		-3.798534933
F		-0.35823201		1.997347353		-0.802188249
F		2.622714157		2.380315912		-0.338771043
F		1.218910839		0.026532205		-1.569114854
F		0.468229517		1.591351029		1.657023439
F		2.545399969		0.593601876		3.623571837
F		0.068383475		-1.256428952		2.788026471
