12
-187.38518821
Al		1.29204118		0.037971617		2.438862673
Al		1.4367734		1.0026496		-0.1676551
Al		-0.309688062		0.82481255		-2.327222173
F		-1.885776772		-0.118890253		-2.104974406
F		2.377945653		-0.344339053		0.850477352
F		0.042895139		1.82846069		-3.794214133
F		-0.36272991		1.641202553		-0.616193649
F		2.431107357		2.603784212		-0.237485243
F		1.460220039		0.106486805		-1.880290554
F		0.320321317		1.305655729		1.416286239
F		2.537226969		0.603134476		3.627892637
F		-0.194663925		-0.949641152		2.927075271
