12
-187.38518821
Al		1.27217668		0.061138317		2.449362073
Al		1.099018		1.396569		0.010886
Al		-0.329552562		0.84797925		-2.316722773
F		-1.431422172		-0.648796453		-2.345149606
F		1.713428253		-0.360756953		0.650880452
F		0.057012139		1.81199529		-3.801677333
F		-0.35496081		2.256361753		-0.937457049
F		2.762064557		2.217793512		-0.412433443
F		1.043413239		-0.031616595		-1.342805254
F		0.575799117		1.799129429		1.832105039
F		2.551343969		0.586669076		3.620429437
F		0.259690675		-1.479547352		2.686900071
12
-187.38518821
Al		1.27322218		0.059919017		2.448809473
Al		1.1167946		1.3758364		0.0014891
Al		-0.328507062		0.84675995		-2.317275373
F		-1.455335572		-0.620906653		-2.332508806
F		1.748402853		-0.359892853		0.661385552
F		0.056269139		1.81286189		-3.801284533
F		-0.35536971		2.223984953		-0.920548449
F		2.744645757		2.238108812		-0.403225643
F		1.065350439		-0.024347995		-1.371093954
F		0.562352917		1.773157129		1.810219839
F		2.550600969		0.587535676		3.620822237
F		0.235777275		-1.451657552		2.699540871
12
-187.38518821
Al		1.27426768		0.058699717		2.448256873
Al		1.1345712		1.3551038		-0.0079078
Al		-0.327461562		0.84554065		-2.317827973
F		-1.479248972		-0.593016853		-2.319868006
F		1.783377453		-0.359028753		0.671890652
F		0.055526139		1.81372849		-3.800891733
F		-0.35577861		2.191608153		-0.903639849
F		2.727226957		2.258424112		-0.394017843
F		1.087287639		-0.017079395		-1.399382654
F		0.548906717		1.747184829		1.788334639
F		2.549857969		0.588402276		3.621215037
F		0.211863875		-1.423767752		2.712181671
12
-187.38518821
Al		1.27531318		0.057480417		2.447704273
Al		1.1523478		1.3343712		-0.0173047
Al		-0.326416062		0.84432135		-2.318380573
F		-1.503162372		-0.565127053		-2.307227206
F		1.818352053		-0.358164653		0.682395752
F		0.054783139		1.81459509		-3.800498933
F		-0.35618751		2.159231353		-0.886731249
F		2.709808157		2.278739412		-0.384810043
F		1.109224839		-0.009810795		-1.427671354
F		0.535460517		1.721212529		1.766449439
F		2.549114969		0.589268876		3.621607837
F		0.187950475		-1.395877952		2.724822471
12
-187.38518821
Al		1.27635868		0.056261117		2.447151673
Al		1.1701244		1.3136386		-0.0267016
Al		-0.325370562		0.84310205		-2.318933173
F		-1.527075772		-0.537237253		-2.294586406
F		1.853326653		-0.357300553		0.692900852
F		0.054040139		1.81546169		-3.800106133
F		-0.35659641		2.126854553		-0.869822649
F		2.692389357		2.299054712		-0.375602243
F		1.131162039		-0.002542195		-1.455960054
F		0.522014317		1.695240229		1.744564239
F		2.548371969		0.590135476		3.622000637
F		0.164037075		-1.367988152		2.737463271
12
-187.38518821
Al		1.27740418		0.055041817		2.446599073
Al		1.187901		1.292906		-0.0360985
Al		-0.324325062		0.84188275		-2.319485773
F		-1.550989172		-0.509347453		-2.281945606
F		1.888301253		-0.356436453		0.703405952
F		0.053297139		1.81632829		-3.799713333
F		-0.35700531		2.094477753		-0.852914049
F		2.674970557		2.319370012		-0.366394443
F		1.153099239		0.004726405		-1.484248754
F		0.508568117		1.669267929		1.722679039
F		2.547628969		0.591002076		3.622393437
F		0.140123675		-1.340098352		2.750104071
12
-187.38518821
Al		1.27844968		0.053822517		2.446046473
Al		1.2056776		1.2721734		-0.0454954
Al		-0.323279562		0.84066345		-2.320038373
F		-1.574902572		-0.481457653		-2.269304806
F		1.923275853		-0.355572353		0.713911052
F		0.052554139		1.81719489		-3.799320533
F		-0.35741421		2.062100953		-0.836005449
F		2.657551757		2.339685312		-0.357186643
F		1.175036439		0.011995005		-1.512537454
F		0.495121917		1.643295629		1.700793839
F		2.546885969		0.591868676		3.622786237
F		0.116210275		-1.312208552		2.762744871
12
-187.38518821
Al		1.27949518		0.052603217		2.445493873
Al		1.2234542		1.2514408		-0.0548923
Al		-0.322234062		0.83944415		-2.320590973
F		-1.598815972		-0.453567853		-2.256664006
F		1.958250453		-0.354708253		0.724416152
F		0.051811139		1.81806149		-3.798927733
F		-0.35782311		2.029724153		-0.819096849
F		2.640132957		2.360000612		-0.347978843
F		1.196973639		0.019263605		-1.540826154
F		0.481675717		1.617323329		1.678908639
F		2.546142969		0.592735276		3.623179037
F		0.092296875		-1.284318752		2.775385671
12
-187.38518821
Al		1.28054068		0.051383917		2.444941273
Al		1.2412308		1.2307082		-0.0642892
Al		-0.321188562		0.83822485		-2.321143573
F		-1.622729372		-0.425678053		-2.244023206
F		1.993225053		-0.353844153		0.734921252
F		0.051068139		1.81892809		-3.798534933
F		-0.35823201		1.997347353		-0.802188249
F		2.622714157		2.380315912		-0.338771043
F		1.218910839		0.026532205		-1.569114854
F		0.468229517		1.591351029		1.657023439
F		2.545399969		0.593601876		3.623571837
F		0.068383475		-1.256428952		2.788026471
12
-187.38518821
Al		1.28158618		0.050164617		2.444388673
Al		1.2590074		1.2099756		-0.0736861
Al		-0.320143062		0.83700555		-2.321696173
F		-1.646642772		-0.397788253		-2.231382406
F		2.028199653		-0.352980053		0.745426352
F		0.050325139		1.81979469		-3.798142133
F		-0.35864091		1.964970553		-0.785279649
F		2.605295357		2.400631212		-0.329563243
F		1.240848039		0.033800805		-1.597403554
F		0.454783317		1.565378729		1.635138239
F		2.544656969		0.594468476		3.623964637
F		0.044470075		-1.228539152		2.800667271
12
-187.38518821
Al		1.28263168		0.048945317		2.443836073
Al		1.276784		1.189243		-0.083083
Al		-0.319097562		0.83578625		-2.322248773
F		-1.670556172		-0.369898453		-2.218741606
F		2.063174253		-0.352115953		0.755931452
F		0.049582139		1.82066129		-3.797749333
F		-0.35904981		1.932593753		-0.768371049
F		2.587876557		2.420946512		-0.320355443
F		1.262785239		0.041069405		-1.625692254
F		0.441337117		1.539406429		1.613253039
F		2.543913969		0.595335076		3.624357437
F		0.020556675		-1.200649352		2.813308071
12
-187.38518821
Al		1.28367718		0.047726017		2.443283473
Al		1.2945606		1.1685104		-0.0924799
Al		-0.318052062		0.83456695		-2.322801373
F		-1.694469572		-0.342008653		-2.206100806
F		2.098148853		-0.351251853		0.766436552
F		0.048839139		1.82152789		-3.797356533
F		-0.35945871		1.900216953		-0.751462449
F		2.570457757		2.441261812		-0.311147643
F		1.284722439		0.048338005		-1.653980954
F		0.427890917		1.513434129		1.591367839
F		2.543170969		0.596201676		3.624750237
F		-0.003356725		-1.172759552		2.825948871
12
-187.38518821
Al		1.28472268		0.046506717		2.442730873
Al		1.3123372		1.1477778		-0.1018768
Al		-0.317006562		0.83334765		-2.323353973
F		-1.718382972		-0.314118853		-2.193460006
F		2.133123453		-0.350387753		0.776941652
F		0.048096139		1.82239449		-3.796963733
F		-0.35986761		1.867840153		-0.734553849
F		2.553038957		2.461577112		-0.301939843
F		1.306659639		0.055606605		-1.682269654
F		0.414444717		1.487461829		1.569482639
F		2.542427969		0.597068276		3.625143037
F		-0.027270125		-1.144869752		2.838589671
12
-187.38518821
Al		1.28576818		0.045287417		2.442178273
Al		1.3301138		1.1270452		-0.1112737
Al		-0.315961062		0.83212835		-2.323906573
F		-1.742296372		-0.286229053		-2.180819206
F		2.168098053		-0.349523653		0.787446752
F		0.047353139		1.82326109		-3.796570933
F		-0.36027651		1.835463353		-0.717645249
F		2.535620157		2.481892412		-0.292732043
F		1.328596839		0.062875205		-1.710558354
F		0.400998517		1.461489529		1.547597439
F		2.541684969		0.597934876		3.625535837
F		-0.051183525		-1.116979952		2.851230471
12
-187.38518821
Al		1.28681368		0.044068117		2.441625673
Al		1.3478904		1.1063126		-0.1206706
Al		-0.314915562		0.83090905		-2.324459173
F		-1.766209772		-0.258339253		-2.168178406
F		2.203072653		-0.348659553		0.797951852
F		0.046610139		1.82412769		-3.796178133
F		-0.36068541		1.803086553		-0.700736649
F		2.518201357		2.502207712		-0.283524243
F		1.350534039		0.070143805		-1.738847054
F		0.387552317		1.435517229		1.525712239
F		2.540941969		0.598801476		3.625928637
F		-0.075096925		-1.089090152		2.863871271
12
-187.38518821
Al		1.28785918		0.042848817		2.441073073
Al		1.365667		1.08558		-0.1300675
Al		-0.313870062		0.82968975		-2.325011773
F		-1.790123172		-0.230449453		-2.155537606
F		2.238047253		-0.347795453		0.808456952
F		0.045867139		1.82499429		-3.795785333
F		-0.36109431		1.770709753		-0.683828049
F		2.500782557		2.522523012		-0.274316443
F		1.372471239		0.077412405		-1.767135754
F		0.374106117		1.409544929		1.503827039
F		2.540198969		0.599668076		3.626321437
F		-0.099010325		-1.061200352		2.876512071
12
-187.38518821
Al		1.28890468		0.041629517		2.440520473
Al		1.3834436		1.0648474		-0.1394644
Al		-0.312824562		0.82847045		-2.325564373
F		-1.814036572		-0.202559653		-2.142896806
F		2.273021853		-0.346931353		0.818962052
F		0.045124139		1.82586089		-3.795392533
F		-0.36150321		1.738332953		-0.666919449
F		2.483363757		2.542838312		-0.265108643
F		1.394408439		0.084681005		-1.795424454
F		0.360659917		1.383572629		1.481941839
F		2.539455969		0.600534676		3.626714237
F		-0.122923725		-1.033310552		2.889152871
12
-187.38518821
Al		1.28995018		0.040410217		2.439967873
Al		1.4012202		1.0441148		-0.1488613
Al		-0.311779062		0.82725115		-2.326116973
F		-1.837949972		-0.174669853		-2.130256006
F		2.307996453		-0.346067253		0.829467152
F		0.044381139		1.82672749		-3.794999733
F		-0.36191211		1.705956153		-0.650010849
F		2.465944957		2.563153612		-0.255900843
F		1.416345639		0.091949605		-1.823713154
F		0.347213717		1.357600329		1.460056639
F		2.538712969		0.601401276		3.627107037
F		-0.146837125		-1.005420752		2.901793671
12
-187.38518821
Al		1.29099568		0.039190917		2.439415273
Al		1.4189968		1.0233822		-0.1582582
Al		-0.310733562		0.82603185		-2.326669573
F		-1.861863372		-0.146780053		-2.117615206
F		2.342971053		-0.345203153		0.839972252
F		0.043638139		1.82759409		-3.794606933
F		-0.36232101		1.673579353		-0.633102249
F		2.448526157		2.583468912		-0.246693043
F		1.438282839		0.099218205		-1.852001854
F		0.333767517		1.331628029		1.438171439
F		2.537969969		0.602267876		3.627499837
F		-0.170750525		-0.977530952		2.914434471
12
-187.38518821
Al		1.29204118		0.037971617		2.438862673
Al		1.4367734		1.0026496		-0.1676551
Al		-0.309688062		0.82481255		-2.327222173
F		-1.885776772		-0.118890253		-2.104974406
F		2.377945653		-0.344339053		0.850477352
F		0.042895139		1.82846069		-3.794214133
F		-0.36272991		1.641202553		-0.616193649
F		2.431107357		2.603784212		-0.237485243
F		1.460220039		0.106486805		-1.880290554
F		0.320321317		1.305655729		1.416286239
F		2.537226969		0.603134476		3.627892637
F		-0.194663925		-0.949641152		2.927075271
