12
-185.77729729
Al		0.263313672		-2.331361611		-1.799650461
Al		2.04026853		-0.539080054		-0.819730724
Al		-0.328533205		0.310563605		-1.817254482
F		3.63518799		-0.176645115		-0.053808022
F		-0.188928074		-4.038164093		-2.179841836
F		2.091924836		-1.832172874		-2.28001679
F		1.535199195		0.639584642		-2.290065218
F		-1.471211023		1.654931232		-2.202985811
F		-1.143086083		-1.257180453		-0.982075867
F		-0.12510807		-1.03696181		-3.21312018
F		0.517221197		0.419366001		-0.059020802
F		1.073946831		-2.052391508		-0.048972474
