12
-185.77729729
Al		0.27381883		-2.328505551		-1.823292205
Al		2.035480566		-0.540685846		-0.809168978
Al		-0.334250485		0.309313423		-1.804174398
F		3.626527188		-0.179549765		-0.034703122
F		-0.169925428		-4.032997901		-2.222606884
F		2.099751524		-1.814646418		-2.286824378
F		1.530285413		0.653886184		-2.26803305
F		-1.481552867		1.65266969		-2.179325577
F		-1.142662447		-1.272463857		-0.993835421
F		-0.118011264		-1.019156112		-3.21794994
F		0.505634245		0.400578441		-0.043918514
F		1.075100349		-2.067954154		-0.062709856
