12
-185.77729729
Al		0.273574524		-2.328571971		-1.822742397
Al		2.035591914		-0.540648502		-0.8094146
Al		-0.334117525		0.309342497		-1.804478586
F		3.626728602		-0.179482215		-0.035147422
F		-0.17036735		-4.033118045		-2.221612348
F		2.099569508		-1.81505401		-2.286666062
F		1.530399687		0.65355359		-2.268545426
F		-1.481312359		1.652722284		-2.179875815
F		-1.142672299		-1.272108429		-0.993561943
F		-0.118176306		-1.019570198		-3.21783762
F		0.505903709		0.401015361		-0.04426973
F		1.075073523		-2.067592232		-0.062390382
