12
-185.77729729
Al		0.273330218		-2.328638391		-1.822192589
Al		2.035703262		-0.540611158		-0.809660222
Al		-0.333984565		0.309371571		-1.804782774
F		3.626930016		-0.179414665		-0.035591722
F		-0.170809272		-4.033238189		-2.220617812
F		2.099387492		-1.815461602		-2.286507746
F		1.530513961		0.653220996		-2.269057802
F		-1.481071851		1.652774878		-2.180426053
F		-1.142682151		-1.271753001		-0.993288465
F		-0.118341348		-1.019984284		-3.2177253
F		0.506173173		0.401452281		-0.044620946
F		1.075046697		-2.06723031		-0.062070908
