12
-185.77729729
Al		0.272352994		-2.328904071		-1.819993357
Al		2.036148654		-0.540461782		-0.81064271
Al		-0.333452725		0.309487867		-1.805999526
F		3.627735672		-0.179144465		-0.037368922
F		-0.17257696		-4.033718765		-2.216639668
F		2.098659428		-1.81709197		-2.285874482
F		1.530971057		0.65189062		-2.271107306
F		-1.480109819		1.652985254		-2.182627005
F		-1.142721559		-1.270331289		-0.992194553
F		-0.119001516		-1.021640628		-3.21727602
F		0.507251029		0.403199961		-0.04602581
F		1.074939393		-2.065782622		-0.060793012
