12
-185.77729729
Al		0.271986535		-2.329003701		-1.819168645
Al		2.036315676		-0.540405766		-0.811011143
Al		-0.333253285		0.309531478		-1.806455808
F		3.628037793		-0.17904314		-0.038035372
F		-0.173239843		-4.033898981		-2.215147864
F		2.098386404		-1.817703358		-2.285637008
F		1.531142468		0.651391729		-2.27187587
F		-1.479749057		1.653064145		-2.183452362
F		-1.142736337		-1.269798147		-0.991784336
F		-0.119249079		-1.022261757		-3.21710754
F		0.507655225		0.403855341		-0.046552634
F		1.074899154		-2.065239739		-0.060313801
