12
-185.77729729
Al		0.275162513		-2.328140241		-1.826316149
Al		2.034868152		-0.540891238		-0.807818057
Al		-0.334981765		0.309153516		-1.802501364
F		3.625419411		-0.17992129		-0.032259472
F		-0.167494857		-4.032337109		-2.228076832
F		2.100752612		-1.812404662		-2.287695116
F		1.529656906		0.655715451		-2.265214982
F		-1.482875661		1.652380423		-2.176299268
F		-1.142608261		-1.274418711		-0.99533955
F		-0.117103533		-1.016878639		-3.2185677
F		0.504152193		0.398175381		-0.041986826
F		1.075247892		-2.069944725		-0.064466963
