12
-185.77729729
Al		0.271742229		-2.329070121		-1.818618837
Al		2.036427024		-0.540368422		-0.811256765
Al		-0.333120325		0.309560552		-1.806759996
F		3.628239207		-0.17897559		-0.038479672
F		-0.173681765		-4.034019125		-2.214153328
F		2.098204388		-1.81811095		-2.285478692
F		1.531256742		0.651059135		-2.272388246
F		-1.479508549		1.653116739		-2.1840026
F		-1.142746189		-1.269442719		-0.991510858
F		-0.119414121		-1.022675843		-3.21699522
F		0.507924689		0.404292261		-0.04690385
F		1.074872328		-2.064877817		-0.059994327
