12
-185.77729729
Al		0.27137577		-2.329169751		-1.817794125
Al		2.036594046		-0.540312406		-0.811625198
Al		-0.332920885		0.309604163		-1.807216278
F		3.628541328		-0.178874265		-0.039146122
F		-0.174344648		-4.034199341		-2.212661524
F		2.097931364		-1.818722338		-2.285241218
F		1.531428153		0.650560244		-2.27315681
F		-1.479147787		1.65319563		-2.184827957
F		-1.142760967		-1.268909577		-0.991100641
F		-0.119661684		-1.023296972		-3.21682674
F		0.508328885		0.404947641		-0.047430674
F		1.074832089		-2.064334934		-0.059515116
