12
-185.77729729
Al		0.27504036		-2.328173451		-1.826041245
Al		2.034923826		-0.540872566		-0.807940868
Al		-0.334915285		0.309168053		-1.802653458
F		3.625520118		-0.179887515		-0.032481622
F		-0.167715818		-4.032397181		-2.227579564
F		2.100661604		-1.812608458		-2.287615958
F		1.529714043		0.655549154		-2.26547117
F		-1.482755407		1.65240672		-2.176574387
F		-1.142613187		-1.274240997		-0.995202811
F		-0.117186054		-1.017085682		-3.21851154
F		0.504286925		0.398393841		-0.042162434
F		1.075234479		-2.069763764		-0.064307226
