12
-185.77729729
Al		0.269909934		-2.329568271		-1.814495277
Al		2.037262134		-0.540088342		-0.81309893
Al		-0.332123125		0.309778607		-1.809041406
F		3.629749812		-0.178468965		-0.041811922
F		-0.17699618		-4.034920205		-2.206694308
F		2.096839268		-1.82116789		-2.284291322
F		1.532113797		0.64856468		-2.276231066
F		-1.477704739		1.653511194		-2.188129385
F		-1.142820079		-1.266777009		-0.989459773
F		-0.120651936		-1.025781488		-3.21615282
F		0.509945669		0.407569161		-0.04953797
F		1.074671133		-2.062163402		-0.057598272
