12
-185.77729729
Al		0.269665628		-2.329634691		-1.813945469
Al		2.037373482		-0.540050998		-0.813344552
Al		-0.331990165		0.309807681		-1.809345594
F		3.629951226		-0.178401415		-0.042256222
F		-0.177438102		-4.035040349		-2.205699772
F		2.096657252		-1.821575482		-2.284133006
F		1.532228071		0.648232086		-2.276743442
F		-1.477464231		1.653563788		-2.188679623
F		-1.142829931		-1.266421581		-0.989186295
F		-0.120816978		-1.026195574		-3.2160405
F		0.510215133		0.408006081		-0.049889186
F		1.074644307		-2.06180148		-0.057278798
