12
-185.77729729
Al		0.269543475		-2.329667901		-1.813670565
Al		2.037429156		-0.540032326		-0.813467363
Al		-0.331923685		0.309822218		-1.809497688
F		3.630051933		-0.17836764		-0.042478372
F		-0.177659063		-4.035100421		-2.205202504
F		2.096566244		-1.821779278		-2.284053848
F		1.532285208		0.648065789		-2.27699963
F		-1.477343977		1.653590085		-2.188954742
F		-1.142834857		-1.266243867		-0.989049556
F		-0.120899499		-1.026402617		-3.21598434
F		0.510349865		0.408224541		-0.050064794
F		1.074630894		-2.061620519		-0.057119061
