12
-185.77729729
Al		0.269299169		-2.329734321		-1.813120757
Al		2.037540504		-0.539994982		-0.813712985
Al		-0.331790725		0.309851292		-1.809801876
F		3.630253347		-0.17830009		-0.042922672
F		-0.178100985		-4.035220565		-2.204207968
F		2.096384228		-1.82218687		-2.283895532
F		1.532399482		0.647733195		-2.277512006
F		-1.477103469		1.653642679		-2.18950498
F		-1.142844709		-1.265888439		-0.988776078
F		-0.121064541		-1.026816703		-3.21587202
F		0.510619329		0.408661461		-0.05041601
F		1.074604068		-2.061258597		-0.056799587
