12
-185.77729729
Al		0.269054863		-2.329800741		-1.812570949
Al		2.037651852		-0.539957638		-0.813958607
Al		-0.331657765		0.309880366		-1.810106064
F		3.630454761		-0.17823254		-0.043366972
F		-0.178542907		-4.035340709		-2.203213432
F		2.096202212		-1.822594462		-2.283737216
F		1.532513756		0.647400601		-2.278024382
F		-1.476862961		1.653695273		-2.190055218
F		-1.142854561		-1.265533011		-0.9885026
F		-0.121229583		-1.027230789		-3.2157597
F		0.510888793		0.409098381		-0.050767226
F		1.074577242		-2.060896675		-0.056480113
