12
-185.77729729
Al		0.268688404		-2.329900371		-1.811746237
Al		2.037818874		-0.539901622		-0.81432704
Al		-0.331458325		0.309923977		-1.810562346
F		3.630756882		-0.178131215		-0.044033422
F		-0.17920579		-4.035520925		-2.201721628
F		2.095929188		-1.82320585		-2.283499742
F		1.532685167		0.64690171		-2.278792946
F		-1.476502199		1.653774164		-2.190880575
F		-1.142869339		-1.264999869		-0.988092383
F		-0.121477146		-1.027851918		-3.21559122
F		0.511292989		0.409753761		-0.05129405
F		1.074537003		-2.060353792		-0.056000902
