12
-185.77729729
Al		0.268566251		-2.329933581		-1.811471333
Al		2.037874548		-0.53988295		-0.814449851
Al		-0.331391845		0.309938514		-1.81071444
F		3.630857589		-0.17809744		-0.044255572
F		-0.179426751		-4.035580997		-2.20122436
F		2.09583818		-1.823409646		-2.283420584
F		1.532742304		0.646735413		-2.279049134
F		-1.476381945		1.653800461		-2.191155694
F		-1.142874265		-1.264822155		-0.987955644
F		-0.121559667		-1.028058961		-3.21553506
F		0.511427721		0.409972221		-0.051469658
F		1.07452359		-2.060172831		-0.055841165
