12
-185.77729729
Al		0.274796054		-2.328239871		-1.825491437
Al		2.035035174		-0.540835222		-0.80818649
Al		-0.334782325		0.309197127		-1.802957646
F		3.625721532		-0.179819965		-0.032925922
F		-0.16815774		-4.032517325		-2.226585028
F		2.100479588		-1.81301605		-2.287457642
F		1.529828317		0.65521656		-2.265983546
F		-1.482514899		1.652459314		-2.177124625
F		-1.142623039		-1.273885569		-0.994929333
F		-0.117351096		-1.017499768		-3.21839922
F		0.504556389		0.398830761		-0.04251365
F		1.075207653		-2.069401842		-0.063987752
