12
-185.77729729
Al		0.267833333		-2.330132841		-1.809821909
Al		2.038208592		-0.539770918		-0.815186717
Al		-0.330992965		0.310025736		-1.811627004
F		3.631461831		-0.17789479		-0.045588472
F		-0.180752517		-4.035941429		-2.198240752
F		2.095292132		-1.824632422		-2.282945636
F		1.533085126		0.645737631		-2.280586262
F		-1.475660421		1.653958243		-2.192806408
F		-1.142903821		-1.263755871		-0.98713521
F		-0.122054793		-1.029301219		-3.2151981
F		0.512236113		0.411282981		-0.052523306
F		1.074443112		-2.059087065		-0.054882743
