12
-185.77729729
Al		0.267466874		-2.330232471		-1.808997197
Al		2.038375614		-0.539714902		-0.81555515
Al		-0.330793525		0.310069347		-1.812083286
F		3.631763952		-0.177793465		-0.046254922
F		-0.1814154		-4.036121645		-2.196748948
F		2.095019108		-1.82524381		-2.282708162
F		1.533256537		0.64523874		-2.281354826
F		-1.475299659		1.654037134		-2.193631765
F		-1.142918599		-1.263222729		-0.986724993
F		-0.122302356		-1.029922348		-3.21502962
F		0.512640309		0.411938361		-0.05305013
F		1.074402873		-2.058544182		-0.054403532
