12
-185.77729729
Al		0.267222568		-2.330298891		-1.808447389
Al		2.038486962		-0.539677558		-0.815800772
Al		-0.330660565		0.310098421		-1.812387474
F		3.631965366		-0.177725915		-0.046699222
F		-0.181857322		-4.036241789		-2.195754412
F		2.094837092		-1.825651402		-2.282549846
F		1.533370811		0.644906146		-2.281867202
F		-1.475059151		1.654089728		-2.194182003
F		-1.142928451		-1.262867301		-0.986451515
F		-0.122467398		-1.030336434		-3.2149173
F		0.512909773		0.412375281		-0.053401346
F		1.074376047		-2.05818226		-0.054084058
