12
-185.77729729
Al		0.267100415		-2.330332101		-1.808172485
Al		2.038542636		-0.539658886		-0.815923583
Al		-0.330594085		0.310112958		-1.812539568
F		3.632066073		-0.17769214		-0.046921372
F		-0.182078283		-4.036301861		-2.195257144
F		2.094746084		-1.825855198		-2.282470688
F		1.533427948		0.644739849		-2.28212339
F		-1.474938897		1.654116025		-2.194457122
F		-1.142933377		-1.262689587		-0.986314776
F		-0.122549919		-1.030543477		-3.21486114
F		0.513044505		0.412593741		-0.053576954
F		1.074362634		-2.058001299		-0.053924321
