12
-185.77729729
Al		0.266978262		-2.330365311		-1.807897581
Al		2.03859831		-0.539640214		-0.816046394
Al		-0.330527605		0.310127495		-1.812691662
F		3.63216678		-0.177658365		-0.047143522
F		-0.182299244		-4.036361933		-2.194759876
F		2.094655076		-1.826058994		-2.28239153
F		1.533485085		0.644573552		-2.282379578
F		-1.474818643		1.654142322		-2.194732241
F		-1.142938303		-1.262511873		-0.986178037
F		-0.12263244		-1.03075052		-3.21480498
F		0.513179237		0.412812201		-0.053752562
F		1.074349221		-2.057820338		-0.053764584
