12
-185.77729729
Al		0.266856109		-2.330398521		-1.807622677
Al		2.038653984		-0.539621542		-0.816169205
Al		-0.330461125		0.310142032		-1.812843756
F		3.632267487		-0.17762459		-0.047365672
F		-0.182520205		-4.036422005		-2.194262608
F		2.094564068		-1.82626279		-2.282312372
F		1.533542222		0.644407255		-2.282635766
F		-1.474698389		1.654168619		-2.19500736
F		-1.142943229		-1.262334159		-0.986041298
F		-0.122714961		-1.030957563		-3.21474882
F		0.513313969		0.413030661		-0.05392817
F		1.074335808		-2.057639377		-0.053604847
