12
-185.77729729
Al		0.266733956		-2.330431731		-1.807347773
Al		2.038709658		-0.53960287		-0.816292016
Al		-0.330394645		0.310156569		-1.81299585
F		3.632368194		-0.177590815		-0.047587822
F		-0.182741166		-4.036482077		-2.19376534
F		2.09447306		-1.826466586		-2.282233214
F		1.533599359		0.644240958		-2.282891954
F		-1.474578135		1.654194916		-2.195282479
F		-1.142948155		-1.262156445		-0.985904559
F		-0.122797482		-1.031164606		-3.21469266
F		0.513448701		0.413249121		-0.054103778
F		1.074322395		-2.057458416		-0.05344511
