12
-185.77729729
Al		0.266611803		-2.330464941		-1.807072869
Al		2.038765332		-0.539584198		-0.816414827
Al		-0.330328165		0.310171106		-1.813147944
F		3.632468901		-0.17755704		-0.047809972
F		-0.182962127		-4.036542149		-2.193268072
F		2.094382052		-1.826670382		-2.282154056
F		1.533656496		0.644074661		-2.283148142
F		-1.474457881		1.654221213		-2.195557598
F		-1.142953081		-1.261978731		-0.98576782
F		-0.122880003		-1.031371649		-3.2146365
F		0.513583433		0.413467581		-0.054279386
F		1.074308982		-2.057277455		-0.053285373
