12
-185.77729729
Al		0.266245344		-2.330564571		-1.806248157
Al		2.038932354		-0.539528182		-0.81678326
Al		-0.330128725		0.310214717		-1.813604226
F		3.632771022		-0.177455715		-0.048476422
F		-0.18362501		-4.036722365		-2.191776268
F		2.094109028		-1.82728177		-2.281916582
F		1.533827907		0.64357577		-2.283916706
F		-1.474097119		1.654300104		-2.196382955
F		-1.142967859		-1.261445589		-0.985357603
F		-0.123127566		-1.031992778		-3.21446802
F		0.513987629		0.414122961		-0.05480621
F		1.074268743		-2.056734572		-0.052806162
