12
-185.77729729
Al		0.265878885		-2.330664201		-1.805423445
Al		2.039099376		-0.539472166		-0.817151693
Al		-0.329929285		0.310258328		-1.814060508
F		3.633073143		-0.17735439		-0.049142872
F		-0.184287893		-4.036902581		-2.190284464
F		2.093836004		-1.827893158		-2.281679108
F		1.533999318		0.643076879		-2.28468527
F		-1.473736357		1.654378995		-2.197208312
F		-1.142982637		-1.260912447		-0.984947386
F		-0.123375129		-1.032613907		-3.21429954
F		0.514391825		0.414778341		-0.055333034
F		1.074228504		-2.056191689		-0.052326951
