12
-185.77729729
Al		0.265512426		-2.330763831		-1.804598733
Al		2.039266398		-0.53941615		-0.817520126
Al		-0.329729845		0.310301939		-1.81451679
F		3.633375264		-0.177253065		-0.049809322
F		-0.184950776		-4.037082797		-2.18879266
F		2.09356298		-1.828504546		-2.281441634
F		1.534170729		0.642577988		-2.285453834
F		-1.473375595		1.654457886		-2.198033669
F		-1.142997415		-1.260379305		-0.984537169
F		-0.123622692		-1.033235036		-3.21413106
F		0.514796021		0.415433721		-0.055859858
F		1.074188265		-2.055648806		-0.05184774
