12
-185.77729729
Al		0.265390273		-2.330797041		-1.804323829
Al		2.039322072		-0.539397478		-0.817642937
Al		-0.329663365		0.310316476		-1.814668884
F		3.633475971		-0.17721929		-0.050031472
F		-0.185171737		-4.037142869		-2.188295392
F		2.093471972		-1.828708342		-2.281362476
F		1.534227866		0.642411691		-2.285710022
F		-1.473255341		1.654484183		-2.198308788
F		-1.143002341		-1.260201591		-0.98440043
F		-0.123705213		-1.033442079		-3.2140749
F		0.514930753		0.415652181		-0.056035466
F		1.074174852		-2.055467845		-0.051688003
