12
-185.77729729
Al		0.26526812		-2.330830251		-1.804048925
Al		2.039377746		-0.539378806		-0.817765748
Al		-0.329596885		0.310331013		-1.814820978
F		3.633576678		-0.177185515		-0.050253622
F		-0.185392698		-4.037202941		-2.187798124
F		2.093380964		-1.828912138		-2.281283318
F		1.534285003		0.642245394		-2.28596621
F		-1.473135087		1.65451048		-2.198583907
F		-1.143007267		-1.260023877		-0.984263691
F		-0.123787734		-1.033649122		-3.21401874
F		0.515065485		0.415870641		-0.056211074
F		1.074161439		-2.055286884		-0.051528266
