12
-185.77729729
Al		0.265145967		-2.330863461		-1.803774021
Al		2.03943342		-0.539360134		-0.817888559
Al		-0.329530405		0.31034555		-1.814973072
F		3.633677385		-0.17715174		-0.050475772
F		-0.185613659		-4.037263013		-2.187300856
F		2.093289956		-1.829115934		-2.28120416
F		1.53434214		0.642079097		-2.286222398
F		-1.473014833		1.654536777		-2.198859026
F		-1.143012193		-1.259846163		-0.984126952
F		-0.123870255		-1.033856165		-3.21396258
F		0.515200217		0.416089101		-0.056386682
F		1.074148026		-2.055105923		-0.051368529
