12
-185.77729729
Al		0.264779508		-2.330963091		-1.802949309
Al		2.039600442		-0.539304118		-0.818256992
Al		-0.329330965		0.310389161		-1.815429354
F		3.633979506		-0.177050415		-0.051142222
F		-0.186276542		-4.037443229		-2.185809052
F		2.093016932		-1.829727322		-2.280966686
F		1.534513551		0.641580206		-2.286990962
F		-1.472654071		1.654615668		-2.199684383
F		-1.143026971		-1.259313021		-0.983716735
F		-0.124117818		-1.034477294		-3.2137941
F		0.515604413		0.416744481		-0.056913506
F		1.074107787		-2.05456304		-0.050889318
