12
-185.77729729
Al		0.264290896		-2.331095931		-1.801849693
Al		2.039823138		-0.53922943		-0.818748236
Al		-0.329065045		0.310447309		-1.81603773
F		3.634382334		-0.176915315		-0.052030822
F		-0.187160386		-4.037683517		-2.18381998
F		2.0926529		-1.830542506		-2.280650054
F		1.534742099		0.640915018		-2.288015714
F		-1.472173055		1.654720856		-2.200784859
F		-1.143046675		-1.258602165		-0.983169779
F		-0.124447902		-1.035305466		-3.21356946
F		0.516143341		0.417618321		-0.057615938
F		1.074054135		-2.053839196		-0.05025037
