12
-185.77729729
Al		0.263680131		-2.331261981		-1.800475173
Al		2.040101508		-0.53913607		-0.819362291
Al		-0.328732645		0.310519994		-1.8167982
F		3.634885869		-0.17674644		-0.053141572
F		-0.188265191		-4.037983877		-2.18133364
F		2.09219786		-1.831561486		-2.280254264
F		1.535027784		0.640083533		-2.289296654
F		-1.471571785		1.654852341		-2.202160454
F		-1.143071305		-1.257713595		-0.982486084
F		-0.124860507		-1.036340681		-3.21328866
F		0.516817001		0.418710621		-0.058493978
F		1.07398707		-2.052934391		-0.049451685
