12
-185.77729729
Al		0.275651125		-2.328007401		-1.827415765
Al		2.034645456		-0.540965926		-0.807326813
Al		-0.335247685		0.309095368		-1.801892988
F		3.625016583		-0.18005639		-0.031370872
F		-0.166611013		-4.032096821		-2.230065904
F		2.101116644		-1.811589478		-2.288011748
F		1.529428358		0.656380639		-2.26419023
F		-1.483356677		1.652275235		-2.175198792
F		-1.142588557		-1.275129567		-0.995886506
F		-0.116773449		-1.016050467		-3.21879234
F		0.503613265		0.397301541		-0.041284394
F		1.075301544		-2.070668569		-0.065105911
