12
-185.77729729
Al		0.276750502		-2.327708511		-1.829889901
Al		2.03414439		-0.541133974		-0.806221514
Al		-0.335846005		0.308964535		-1.800524142
F		3.62411022		-0.180360365		-0.029371522
F		-0.164622364		-4.031556173		-2.234541316
F		2.101935716		-1.809755314		-2.28872417
F		1.528914125		0.657877312		-2.261884538
F		-1.484438963		1.652038562		-2.172722721
F		-1.142544223		-1.276728993		-0.997117157
F		-0.11603076		-1.01418708		-3.21929778
F		0.502400677		0.395335401		-0.039703922
F		1.075422261		-2.072297218		-0.066543544
