12
-185.77729729
Al		0.276872655		-2.327675301		-1.830164805
Al		2.034088716		-0.541152646		-0.806098703
Al		-0.335912485		0.308949998		-1.800372048
F		3.624009513		-0.18039414		-0.029149372
F		-0.164401403		-4.031496101		-2.235038584
F		2.102026724		-1.809551518		-2.288803328
F		1.528856988		0.658043609		-2.26162835
F		-1.484559217		1.652012265		-2.172447602
F		-1.142539297		-1.276906707		-0.997253896
F		-0.115948239		-1.013980037		-3.21935394
F		0.502265945		0.395116941		-0.039528314
F		1.075435674		-2.072478179		-0.066703281
