12
-185.77729729
Al		0.277116961		-2.327608881		-1.830714613
Al		2.033977368		-0.54118999		-0.805853081
Al		-0.336045445		0.308920924		-1.80006786
F		3.623808099		-0.18046169		-0.028705072
F		-0.163959481		-4.031375957		-2.23603312
F		2.10220874		-1.809143926		-2.288961644
F		1.528742714		0.658376203		-2.261115974
F		-1.484799725		1.651959671		-2.171897364
F		-1.142529445		-1.277262135		-0.997527374
F		-0.115783197		-1.013565951		-3.21946626
F		0.501996481		0.394680021		-0.039177098
F		1.0754625		-2.072840101		-0.067022755
