12
-185.77729729
Al		0.277239114		-2.327575671		-1.830989517
Al		2.033921694		-0.541208662		-0.80573027
Al		-0.336111925		0.308906387		-1.799915766
F		3.623707392		-0.180495465		-0.028482922
F		-0.16373852		-4.031315885		-2.236530388
F		2.102299748		-1.80894013		-2.289040802
F		1.528685577		0.6585425		-2.260859786
F		-1.484919979		1.651933374		-2.171622245
F		-1.142524519		-1.277439849		-0.997664113
F		-0.115700676		-1.013358908		-3.21952242
F		0.501861749		0.394461561		-0.03900149
F		1.075475913		-2.073021062		-0.067182492
