12
-185.77729729
Al		0.277361267		-2.327542461		-1.831264421
Al		2.03386602		-0.541227334		-0.805607459
Al		-0.336178405		0.30889185		-1.799763672
F		3.623606685		-0.18052924		-0.028260772
F		-0.163517559		-4.031255813		-2.237027656
F		2.102390756		-1.808736334		-2.28911996
F		1.52862844		0.658708797		-2.260603598
F		-1.485040233		1.651907077		-2.171347126
F		-1.142519593		-1.277617563		-0.997800852
F		-0.115618155		-1.013151865		-3.21957858
F		0.501727017		0.394243101		-0.038825882
F		1.075489326		-2.073202023		-0.067342229
