12
-185.77729729
Al		0.277849879		-2.327409621		-1.832364037
Al		2.033643324		-0.541302022		-0.805116215
Al		-0.336444325		0.308833702		-1.799155296
F		3.623203857		-0.18066434		-0.027372172
F		-0.162633715		-4.031015525		-2.239016728
F		2.102754788		-1.80792115		-2.289436592
F		1.528399892		0.659373985		-2.259578846
F		-1.485521249		1.651801889		-2.17024665
F		-1.142499889		-1.278328419		-0.998347808
F		-0.115288071		-1.012323693		-3.21980322
F		0.501188089		0.393369261		-0.03812345
F		1.075542978		-2.073925867		-0.067981177
