12
-185.77729729
Al		0.275773278		-2.327974191		-1.827690669
Al		2.034589782		-0.540984598		-0.807204002
Al		-0.335314165		0.309080831		-1.801740894
F		3.624915876		-0.180090165		-0.031148722
F		-0.166390052		-4.032036749		-2.230563172
F		2.101207652		-1.811385682		-2.288090906
F		1.529371221		0.656546936		-2.263934042
F		-1.483476931		1.652248938		-2.174923673
F		-1.142583631		-1.275307281		-0.996023245
F		-0.116690928		-1.015843424		-3.2188485
F		0.503478533		0.397083081		-0.041108786
F		1.075314957		-2.07084953		-0.065265648
