12
-185.77729729
Al		0.278094185		-2.327343201		-1.832913845
Al		2.033531976		-0.541339366		-0.804870593
Al		-0.336577285		0.308804628		-1.798851108
F		3.623002443		-0.18073189		-0.026927872
F		-0.162191793		-4.030895381		-2.240011264
F		2.102936804		-1.807513558		-2.289594908
F		1.528285618		0.659706579		-2.25906647
F		-1.485761757		1.651749295		-2.169696412
F		-1.142490037		-1.278683847		-0.998621286
F		-0.115123029		-1.011909607		-3.21991554
F		0.500918625		0.392932341		-0.037772234
F		1.075569804		-2.074287789		-0.068300651
