12
-185.77729729
Al		0.278216338		-2.327309991		-1.833188749
Al		2.033476302		-0.541358038		-0.804747782
Al		-0.336643765		0.308790091		-1.798699014
F		3.622901736		-0.180765665		-0.026705722
F		-0.161970832		-4.030835309		-2.240508532
F		2.103027812		-1.807309762		-2.289674066
F		1.528228481		0.659872876		-2.258810282
F		-1.485882011		1.651722998		-2.169421293
F		-1.142485111		-1.278861561		-0.998758025
F		-0.115040508		-1.011702564		-3.2199717
F		0.500783893		0.392713881		-0.037596626
F		1.075583217		-2.07446875		-0.068460388
