12
-185.77729729
Al		0.278460644		-2.327243571		-1.833738557
Al		2.033364954		-0.541395382		-0.80450216
Al		-0.336776725		0.308761017		-1.798394826
F		3.622700322		-0.180833215		-0.026261422
F		-0.16152891		-4.030715165		-2.241503068
F		2.103209828		-1.80690217		-2.289832382
F		1.528114207		0.66020547		-2.258297906
F		-1.486122519		1.651670404		-2.168871055
F		-1.142475259		-1.279216989		-0.999031503
F		-0.114875466		-1.011288478		-3.22008402
F		0.500514429		0.392276961		-0.03724541
F		1.075610043		-2.074830672		-0.068779862
