12
-185.77729729
Al		0.278949256		-2.327110731		-1.834838173
Al		2.033142258		-0.54147007		-0.804010916
Al		-0.337042645		0.308702869		-1.79778645
F		3.622297494		-0.180968315		-0.025372822
F		-0.160645066		-4.030474877		-2.24349214
F		2.10357386		-1.806086986		-2.290149014
F		1.527885659		0.660870658		-2.257273154
F		-1.486603535		1.651565216		-2.167770579
F		-1.142455555		-1.279927845		-0.999578459
F		-0.114545382		-1.010460306		-3.22030866
F		0.499975501		0.391403121		-0.036542978
F		1.075663695		-2.075554516		-0.06941881
