12
-185.77729729
Al		0.279071409		-2.327077521		-1.835113077
Al		2.033086584		-0.541488742		-0.803888105
Al		-0.337109125		0.308688332		-1.797634356
F		3.622196787		-0.18100209		-0.025150672
F		-0.160424105		-4.030414805		-2.243989408
F		2.103664868		-1.80588319		-2.290228172
F		1.527828522		0.661036955		-2.257016966
F		-1.486723789		1.651538919		-2.16749546
F		-1.142450629		-1.280105559		-0.999715198
F		-0.114462861		-1.010253263		-3.22036482
F		0.499840769		0.391184661		-0.03636737
F		1.075677108		-2.075735477		-0.069578547
