12
-185.77729729
Al		0.279193562		-2.327044311		-1.835387981
Al		2.03303091		-0.541507414		-0.803765294
Al		-0.337175605		0.308673795		-1.797482262
F		3.62209608		-0.181035865		-0.024928522
F		-0.160203144		-4.030354733		-2.244486676
F		2.103755876		-1.805679394		-2.29030733
F		1.527771385		0.661203252		-2.256760778
F		-1.486844043		1.651512622		-2.167220341
F		-1.142445703		-1.280283273		-0.999851937
F		-0.11438034		-1.01004622		-3.22042098
F		0.499706037		0.390966201		-0.036191762
F		1.075690521		-2.075916438		-0.069738284
