12
-185.77729729
Al		0.279315715		-2.327011101		-1.835662885
Al		2.032975236		-0.541526086		-0.803642483
Al		-0.337242085		0.308659258		-1.797330168
F		3.621995373		-0.18106964		-0.024706372
F		-0.159982183		-4.030294661		-2.244983944
F		2.103846884		-1.805475598		-2.290386488
F		1.527714248		0.661369549		-2.25650459
F		-1.486964297		1.651486325		-2.166945222
F		-1.142440777		-1.280460987		-0.999988676
F		-0.114297819		-1.009839177		-3.22047714
F		0.499571305		0.390747741		-0.036016154
F		1.075703934		-2.076097399		-0.069898021
