12
-185.77729729
Al		0.27992648		-2.326845051		-1.837037405
Al		2.032696866		-0.541619446		-0.803028428
Al		-0.337574485		0.308586573		-1.796569698
F		3.621491838		-0.181238515		-0.023595622
F		-0.158877378		-4.029994301		-2.247470284
F		2.104301924		-1.804456618		-2.290782278
F		1.527428563		0.662201034		-2.25522365
F		-1.487565567		1.65135484		-2.165569627
F		-1.142416147		-1.281349557		-1.000672371
F		-0.113885214		-1.008803962		-3.22075794
F		0.498897645		0.389655441		-0.035138114
F		1.075770999		-2.077002204		-0.070696706
