12
-185.77729729
Al		0.280048633		-2.326811841		-1.837312309
Al		2.032641192		-0.541638118		-0.802905617
Al		-0.337640965		0.308572036		-1.796417604
F		3.621391131		-0.18127229		-0.023373472
F		-0.158656417		-4.029934229		-2.247967552
F		2.104392932		-1.804252822		-2.290861436
F		1.527371426		0.662367331		-2.254967462
F		-1.487685821		1.651328543		-2.165294508
F		-1.142411221		-1.281527271		-1.00080911
F		-0.113802693		-1.008596919		-3.2208141
F		0.498762913		0.389436981		-0.034962506
F		1.075784412		-2.077183165		-0.070856443
