12
-185.77729729
Al		0.280659398		-2.326645791		-1.838686829
Al		2.032362822		-0.541731478		-0.802291562
Al		-0.337973365		0.308499351		-1.795657134
F		3.620887596		-0.181441165		-0.022262722
F		-0.157551612		-4.029633869		-2.250453892
F		2.104847972		-1.803233842		-2.291257226
F		1.527085741		0.663198816		-2.253686522
F		-1.488287091		1.651197058		-2.163918913
F		-1.142386591		-1.282415841		-1.001492805
F		-0.113390088		-1.007561704		-3.2210949
F		0.498089253		0.388344681		-0.034084466
F		1.075851477		-2.07808797		-0.071655128
