12
-185.77729729
Al		0.280781551		-2.326612581		-1.838961733
Al		2.032307148		-0.54175015		-0.802168751
Al		-0.338039845		0.308484814		-1.79550504
F		3.620786889		-0.18147494		-0.022040572
F		-0.157330651		-4.029573797		-2.25095116
F		2.10493898		-1.803030046		-2.291336384
F		1.527028604		0.663365113		-2.253430334
F		-1.488407345		1.651170761		-2.163643794
F		-1.142381665		-1.282593555		-1.001629544
F		-0.113307567		-1.007354661		-3.22115106
F		0.497954521		0.388126221		-0.033908858
F		1.07586489		-2.078268931		-0.071814865
