12
-185.77729729
Al		0.28114801		-2.326512951		-1.839786445
Al		2.032140126		-0.541806166		-0.801800318
Al		-0.338239285		0.308441203		-1.795048758
F		3.620484768		-0.181576265		-0.021374122
F		-0.156667768		-4.029393581		-2.252442964
F		2.105212004		-1.802418658		-2.291573858
F		1.526857193		0.663864004		-2.25266177
F		-1.488768107		1.65109187		-2.162818437
F		-1.142366887		-1.283126697		-1.002039761
F		-0.113060004		-1.006733532		-3.22131954
F		0.497550325		0.387470841		-0.033382034
F		1.075905129		-2.078811814		-0.072294076
