12
-185.77729729
Al		0.281392316		-2.326446531		-1.840336253
Al		2.032028778		-0.54184351		-0.801554696
Al		-0.338372245		0.308412129		-1.79474457
F		3.620283354		-0.181643815		-0.020929822
F		-0.156225846		-4.029273437		-2.2534375
F		2.10539402		-1.802011066		-2.291732174
F		1.526742919		0.664196598		-2.252149394
F		-1.489008615		1.651039276		-2.162268199
F		-1.142357035		-1.283482125		-1.002313239
F		-0.112894962		-1.006319446		-3.22143186
F		0.497280861		0.387033921		-0.033030818
F		1.075931955		-2.079173736		-0.07261355
