12
-185.77729729
Al		0.281514469		-2.326413321		-1.840611157
Al		2.031973104		-0.541862182		-0.801431885
Al		-0.338438725		0.308397592		-1.794592476
F		3.620182647		-0.18167759		-0.020707672
F		-0.156004885		-4.029213365		-2.253934768
F		2.105485028		-1.80180727		-2.291811332
F		1.526685782		0.664362895		-2.251893206
F		-1.489128869		1.651012979		-2.16199308
F		-1.142352109		-1.283659839		-1.002449978
F		-0.112812441		-1.006112403		-3.22148802
F		0.497146129		0.386815461		-0.03285521
F		1.075945368		-2.079354697		-0.072773287
