12
-185.77729729
Al		0.281758775		-2.326346901		-1.841160965
Al		2.031861756		-0.541899526		-0.801186263
Al		-0.338571685		0.308368518		-1.794288288
F		3.619981233		-0.18174514		-0.020263372
F		-0.155562963		-4.029093221		-2.254929304
F		2.105667044		-1.801399678		-2.291969648
F		1.526571508		0.664695489		-2.25138083
F		-1.489369377		1.650960385		-2.161442842
F		-1.142342257		-1.284015267		-1.002723456
F		-0.112647399		-1.005698317		-3.22160034
F		0.496876665		0.386378541		-0.032503994
F		1.075972194		-2.079716619		-0.073092761
