12
-185.77729729
Al		0.282003081		-2.326280481		-1.841710773
Al		2.031750408		-0.54193687		-0.800940641
Al		-0.338704645		0.308339444		-1.7939841
F		3.619779819		-0.18181269		-0.019819072
F		-0.155121041		-4.028973077		-2.25592384
F		2.10584906		-1.800992086		-2.292127964
F		1.526457234		0.665028083		-2.250868454
F		-1.489609885		1.650907791		-2.160892604
F		-1.142332405		-1.284370695		-1.002996934
F		-0.112482357		-1.005284231		-3.22171266
F		0.496607201		0.385941621		-0.032152778
F		1.07599902		-2.080078541		-0.073412235
