12
-185.77729729
Al		0.282125234		-2.326247271		-1.841985677
Al		2.031694734		-0.541955542		-0.80081783
Al		-0.338771125		0.308324907		-1.793832006
F		3.619679112		-0.181846465		-0.019596922
F		-0.15490008		-4.028913005		-2.256421108
F		2.105940068		-1.80078829		-2.292207122
F		1.526400097		0.66519438		-2.250612266
F		-1.489730139		1.650881494		-2.160617485
F		-1.142327479		-1.284548409		-1.003133673
F		-0.112399836		-1.005077188		-3.22176882
F		0.496472469		0.385723161		-0.03197717
F		1.076012433		-2.080259502		-0.073571972
