12
-185.77729729
Al		0.282247387		-2.326214061		-1.842260581
Al		2.03163906		-0.541974214		-0.800695019
Al		-0.338837605		0.30831037		-1.793679912
F		3.619578405		-0.18188024		-0.019374772
F		-0.154679119		-4.028852933		-2.256918376
F		2.106031076		-1.800584494		-2.29228628
F		1.52634296		0.665360677		-2.250356078
F		-1.489850393		1.650855197		-2.160342366
F		-1.142322553		-1.284726123		-1.003270412
F		-0.112317315		-1.004870145		-3.22182498
F		0.496337737		0.385504701		-0.031801562
F		1.076025846		-2.080440463		-0.073731709
