12
-185.77729729
Al		0.282735999		-2.326081221		-1.843360197
Al		2.031416364		-0.542048902		-0.800203775
Al		-0.339103525		0.308252222		-1.793071536
F		3.619175577		-0.18201534		-0.018486172
F		-0.153795275		-4.028612645		-2.258907448
F		2.106395108		-1.79976931		-2.292602912
F		1.526114412		0.666025865		-2.249331326
F		-1.490331409		1.650750009		-2.15924189
F		-1.142302849		-1.285436979		-1.003817368
F		-0.111987231		-1.004041973		-3.22204962
F		0.495798809		0.384630861		-0.03109913
F		1.076079498		-2.081164307		-0.074370657
