12
-185.77729729
Al		0.282858152		-2.326048011		-1.843635101
Al		2.03136069		-0.542067574		-0.800080964
Al		-0.339170005		0.308237685		-1.792919442
F		3.61907487		-0.182049115		-0.018264022
F		-0.153574314		-4.028552573		-2.259404716
F		2.106486116		-1.799565514		-2.29268207
F		1.526057275		0.666192162		-2.249075138
F		-1.490451663		1.650723712		-2.158966771
F		-1.142297923		-1.285614693		-1.003954107
F		-0.11190471		-1.00383493		-3.22210578
F		0.495664077		0.384412401		-0.030923522
F		1.076092911		-2.081345268		-0.074530394
