12
-185.77729729
Al		0.283346764		-2.325915171		-1.844734717
Al		2.031137994		-0.542142262		-0.79958972
Al		-0.339435925		0.308179537		-1.792311066
F		3.618672042		-0.182184215		-0.017375422
F		-0.15269047		-4.028312285		-2.261393788
F		2.106850148		-1.79875033		-2.292998702
F		1.525828727		0.66685735		-2.248050386
F		-1.490932679		1.650618524		-2.157866295
F		-1.142278219		-1.286325549		-1.004501063
F		-0.111574626		-1.003006758		-3.22233042
F		0.495125149		0.383538561		-0.03022109
F		1.076146563		-2.082069112		-0.075169342
