12
-185.77729729
Al		0.283468917		-2.325881961		-1.845009621
Al		2.03108232		-0.542160934		-0.799466909
Al		-0.339502405		0.308165		-1.792158972
F		3.618571335		-0.18221799		-0.017153272
F		-0.152469509		-4.028252213		-2.261891056
F		2.106941156		-1.798546534		-2.29307786
F		1.52577159		0.667023647		-2.247794198
F		-1.491052933		1.650592227		-2.157591176
F		-1.142273293		-1.286503263		-1.004637802
F		-0.111492105		-1.002799715		-3.22238658
F		0.494990417		0.383320101		-0.030045482
F		1.076159976		-2.082250073		-0.075329079
