12
-185.77729729
Al		0.284079682		-2.325715911		-1.846384141
Al		2.03080395		-0.542254294		-0.798852854
Al		-0.339834805		0.308092315		-1.791398502
F		3.6180678		-0.182386865		-0.016042522
F		-0.151364704		-4.027951853		-2.264377396
F		2.107396196		-1.797527554		-2.29347365
F		1.525485905		0.667855132		-2.246513258
F		-1.491654203		1.650460742		-2.156215581
F		-1.142248663		-1.287391833		-1.005321497
F		-0.1110795		-1.0017645		-3.22266738
F		0.494316757		0.382227801		-0.029167442
F		1.076227041		-2.083154878		-0.076127764
