12
-185.77729729
Al		0.284201835		-2.325682701		-1.846659045
Al		2.030748276		-0.542272966		-0.798730043
Al		-0.339901285		0.308077778		-1.791246408
F		3.617967093		-0.18242064		-0.015820372
F		-0.151143743		-4.027891781		-2.264874664
F		2.107487204		-1.797323758		-2.293552808
F		1.525428768		0.668021429		-2.24625707
F		-1.491774457		1.650434445		-2.155940462
F		-1.142243737		-1.287569547		-1.005458236
F		-0.110996979		-1.001557457		-3.22272354
F		0.494182025		0.382009341		-0.028991834
F		1.076240454		-2.083335839		-0.076287501
