12
-185.77729729
Al		0.285423365		-2.325350601		-1.849408085
Al		2.030191536		-0.542459686		-0.797501933
Al		-0.340566085		0.307932408		-1.789725468
F		3.616960023		-0.18275839		-0.013598872
F		-0.148934133		-4.027291061		-2.269847344
F		2.108397284		-1.795285798		-2.294344388
F		1.524857398		0.669684399		-2.24369519
F		-1.492976997		1.650171475		-2.153189272
F		-1.142194477		-1.289346687		-1.006825626
F		-0.110171769		-0.999487027		-3.22328514
F		0.492834705		0.379824741		-0.027235754
F		1.076374584		-2.085145449		-0.077884871
