12
-185.77729729
Al		0.285667671		-2.325284181		-1.849957893
Al		2.030080188		-0.54249703		-0.797256311
Al		-0.340699045		0.307903334		-1.78942128
F		3.616758609		-0.18282594		-0.013154572
F		-0.148492211		-4.027170917		-2.27084188
F		2.1085793		-1.794878206		-2.294502704
F		1.524743124		0.670016993		-2.243182814
F		-1.493217505		1.650118881		-2.152639034
F		-1.142184625		-1.289702115		-1.007099104
F		-0.110006727		-0.999072941		-3.22339746
F		0.492565241		0.379387821		-0.026884538
F		1.07640141		-2.085507371		-0.078204345
