12
-185.77729729
Al		0.285789824		-2.325250971		-1.850232797
Al		2.030024514		-0.542515702		-0.7971335
Al		-0.340765525		0.307888797		-1.789269186
F		3.616657902		-0.182859715		-0.012932422
F		-0.14827125		-4.027110845		-2.271339148
F		2.108670308		-1.79467441		-2.294581862
F		1.524685987		0.67018329		-2.242926626
F		-1.493337759		1.650092584		-2.152363915
F		-1.142179699		-1.289879829		-1.007235843
F		-0.109924206		-0.998865898		-3.22345362
F		0.492430509		0.379169361		-0.02670893
F		1.076414823		-2.085688332		-0.078364082
