12
-185.77729729
Al		0.286278436		-2.325118131		-1.851332413
Al		2.029801818		-0.54259039		-0.796642256
Al		-0.341031445		0.307830649		-1.78866081
F		3.616255074		-0.182994815		-0.012043822
F		-0.147387406		-4.026870557		-2.27332822
F		2.10903434		-1.793859226		-2.294898494
F		1.524457439		0.670848478		-2.241901874
F		-1.493818775		1.649987396		-2.151263439
F		-1.142159995		-1.290590685		-1.007782799
F		-0.109594122		-0.998037726		-3.22367826
F		0.491891581		0.378295521		-0.026006498
F		1.076468475		-2.086412176		-0.07900303
