12
-185.77729729
Al		0.286889201		-2.324952081		-1.852706933
Al		2.029523448		-0.54268375		-0.796028201
Al		-0.341363845		0.307757964		-1.78790034
F		3.615751539		-0.18316369		-0.010933072
F		-0.146282601		-4.026570197		-2.27581456
F		2.10948938		-1.792840246		-2.295294284
F		1.524171754		0.671679963		-2.240620934
F		-1.494420045		1.649855911		-2.149887844
F		-1.142135365		-1.291479255		-1.008466494
F		-0.109181517		-0.997002511		-3.22395906
F		0.491217921		0.377203221		-0.025128458
F		1.07653554		-2.087316981		-0.079801715
