12
-185.77729729
Al		0.287133507		-2.324885661		-1.853256741
Al		2.0294121		-0.542721094		-0.795782579
Al		-0.341496805		0.30772889		-1.787596152
F		3.615550125		-0.18323124		-0.010488772
F		-0.145840679		-4.026450053		-2.276809096
F		2.109671396		-1.792432654		-2.2954526
F		1.52405748		0.672012557		-2.240108558
F		-1.494660553		1.649803317		-2.149337606
F		-1.142125513		-1.291834683		-1.008739972
F		-0.109016475		-0.996588425		-3.22407138
F		0.490948457		0.376766301		-0.024777242
F		1.076562366		-2.087678903		-0.080121189
