12
Properties=species:S:1:pos:R:3:forces:R:3 energy=-175.72328458 pbc="F F F"
Al    -0.585490657    1.760375796    2.164968221    1.793341    2.640931    -0.748155
Al    2.088552996    3.115542525    1.721320275    -15.97257    11.187059    -15.842866
Al    1.090924958    2.940187781    -0.588292553    0.243553    5.163054    7.278369
F    1.3600703520000001    3.154830419    2.625183232    -0.437774    -0.419749    0.728365
F    -1.304458647    2.514286743    2.164703495    -3.056096    1.546955    0.153246
F    -0.43912586000000003    0.026423282    2.73125536    1.055311    -0.669904    -0.159003
F    1.865124469    0.318784085    1.957657134    1.132956    -3.857306    0.474448
F    3.268248942    1.642102172    -0.051578254    4.52489    -4.34122    -1.174431
F    1.1162706139999998    2.996035452    -2.273287804    0.146225    -0.392728    1.482644
F    1.6802348679999999    3.747377787    0.593316765    4.757722    -10.829149    6.238432
F    4.472062965999999    3.154027311    2.598588468    4.874343    -0.482225    2.517948
F    0.0664559    1.822100268    0.160438305    0.938097    0.454282    -0.949
