12
Properties=species:S:1:pos:R:3:forces:R:3 energy=-186.90915723 pbc="F F F"
Al    0.234752793    -0.590246158    1.717202139    -0.569696    0.027384    -0.250676
Al    2.585706765    -1.663987272    -0.16724029699999998    0.156876    0.385421    1.093554
Al    -0.555745981    -2.030659358    -1.218862343    1.120231    -0.262492    -0.557748
F    3.3461061069999998    -0.48918139299999996    -1.48055018    0.065968    0.185382    -0.573563
F    -1.863235054    -0.6030524880000001    -1.365188997    -0.474496    0.352823    0.251335
F    2.4591993949999997    -3.4987982939999998    -0.739568843    -0.164989    -0.372314    -0.349118
F    -1.507202566    -3.645608802    -0.98412872    -0.370165    -0.263115    0.23849
F    1.849045197    -1.691028993    1.569617602    0.043178    -0.250111    0.173139
F    1.149278364    -1.511445282    -1.405107265    3.9e-05    -0.033397    -0.019207
F    0.20373455199999999    -1.216406163    3.4287538889999998    0.230881    -0.052958    0.142522
F    0.144545171    1.129050299    1.073305736    -0.048182    0.031522    -0.02636
F    -0.8919226680000001    -1.043168583    0.378769614    0.010355    0.251855    -0.122367
