      12
SCF Done            -165.63753699
Al           -0.144493013         1.594201972         2.327689020
Al            2.474361896         2.519468625         1.719200575
Al            1.316074084         2.561751784        -0.564375054
F             0.943516178         3.156073536         2.698815863
F            -1.495248483         2.862826122         2.014872386
F            -0.360726871        -0.202474466         2.716004630
F             1.716442153         0.793119593         1.919413265
F             3.136113945         2.043961253        -0.101259016
F             1.118501809         3.056511133        -2.289929012
F             1.827495694         4.011257787         0.571612067
F             4.034077568         3.127562777         2.388067580
F            -0.088839791         1.886409410         0.368801693
