12
Properties=species:S:1:pos:R:3:forces:R:3 energy=-182.05544649 pbc="F F F"
Al    0.6633939719999999    -2.4115291109999997    -1.899952361    3.482834    3.177424    -5.583098
Al    2.04929013    -0.18771475599999998    -1.0016771240000002    0.548258    0.196284    -7.284109
Al    -0.464422206    0.10827040300000002    -2.127118583    4.501587    -1.22174    -5.624961
F    3.6192422879999997    -0.186667116    -0.016457023    0.045158    0.004843    0.589978
F    -0.178220974    -4.032351393    -2.216226636    -0.285965    -0.331522    0.398044
F    1.7136536380000003    -2.093084776    -2.364491589    -2.430994    1.010113    2.423656
F    1.873969995    0.44710933900000005    -1.9949104199999999    -1.72941    -2.019433    2.394827
F    -1.486987422    1.6538400309999999    -2.158405911    -0.400913    0.164837    0.402767
F    -1.232899486    -1.3286028520000002    -0.908744769    -2.26622    -0.548164    2.45405
F    -0.22624597400000002    -0.5642630089999999    -3.081693681    0.291511    0.033571    3.56624
F    0.438725996    0.444367498    0.068905998    -1.083258    0.653571    3.139741
F    1.078339134    -2.10209011    0.067700827    -0.672587    -1.119785    3.122864
