      12
SCF Done            -182.05544649
Al            0.366599972        -2.305072111        -2.024511361
Al            2.125772130        -0.517978756        -1.004820124
Al           -0.244110206         0.332078403        -1.999415583
F             3.618112288        -0.181789116        -0.016411023
F            -0.173836974        -4.033923393        -2.214386636
F             2.016656638        -1.785272776        -2.188858589
F             1.465775995         0.593524339        -2.166221420
F            -1.490241422         1.650535031        -2.160291911
F            -1.239912486        -1.298319852        -0.908456769
F            -0.121055974        -1.018493009        -3.086016681
F             0.465938996         0.434606498         0.080326998
F             1.058138134        -2.122611110         0.055991827
