      12
SCF Done            -167.68076943
Al           -0.382338038         1.118029160        -1.821089136
Al           -0.453108181         1.098520491         1.281203001
Al           -3.004710903         0.388170878        -1.857470809
F            -3.464620655         0.004328936        -3.593806961
F            -1.316662558        -0.543041304        -1.677492538
F            -2.006955493         2.052586989        -2.057308761
F            -2.107808577         1.056043455         0.449234909
F             0.556408416         1.455061297        -0.298301575
F            -0.067147381         2.615532804         2.274967771
F             0.206333608        -0.574386471         1.772278958
F            -4.289845367         0.271927326        -0.581957713
F             0.743508619         1.262645303        -3.234215644
