      12
SCF Done            -186.49022745
Al           -0.382338038         1.118029160        -1.821089136
Al           -0.453108314         1.098520453         1.281203036
Al           -3.004710919         0.388170889        -1.857470542
F            -3.464620661         0.004329008        -3.593806708
F            -1.316662557        -0.543041301        -1.677492445
F            -2.006955487         2.052587003        -2.057308583
F            -2.107808725         1.056043339         0.449235024
F             0.556408327         1.455061243        -0.298301511
F            -0.067147575         2.615532797         2.274967747
F             0.206333515        -0.574386458         1.772279045
F            -4.289845492         0.271927270        -0.581957565
F             0.743508627         1.262645337        -3.234215629
