      12
SCF Done            -186.28566812
Al           -1.702077761         2.558804620        -1.231630491
Al           -0.546407055        -0.003649494        -2.331616374
Al           -2.186431576        -0.337337218        -0.532003137
F            -0.759054841         3.683477236        -0.163695457
F            -3.018988647         3.179989093        -2.316577292
F            -1.377785880        -1.740056627        -1.733199761
F            -2.540692462         1.458793983         0.077325362
F            -3.226272463        -1.282766032         0.580041853
F             0.598099598        -0.504639941        -3.616475004
F            -0.315108425         1.911622614        -2.364827431
F            -2.457263157         0.478168451        -2.305642128
F            -0.297392268         0.164967039        -0.395381708
