      12
SCF Done            -178.36525033
Al            0.306726293        -0.327602458         2.010944839
Al            2.214961665        -1.727632472        -0.430533897
Al           -0.789921981        -1.766223158        -0.868291343
F             3.540019007        -0.428298493        -1.146721480
F            -1.887859554        -0.498007188        -1.937464397
F             2.766511795        -3.683296094        -0.493084043
F            -1.251349366        -3.734895702        -1.078413020
F             2.049516697        -1.506544993         1.065636502
F             0.828695164        -1.518578482        -1.467001065
F             0.142893952        -1.102835463         3.203874589
F             0.399966671         0.897098899         1.262950536
F            -1.063766668        -1.546527883         0.612087614
