      12
SCF Done            -186.49022636
Al           -0.345712438         0.948555560        -1.817857136
Al           -0.442645914         1.050110853         1.282126236
Al           -3.035133319         0.528935689        -1.860155342
F            -3.598793461         0.625157808        -3.605648308
F            -1.437737757        -0.581233301        -2.007074845
F            -1.883510687         2.079815803        -1.727516583
F            -1.960707925         0.375392139         0.462215824
F             0.636424327         1.084821243        -0.291240711
F            -0.536486775         2.862718397         1.706727747
F             0.527288715        -0.134980058         2.327424645
F            -4.263642292         0.150684070        -0.579645565
F             0.750516627         1.230218137        -3.233596429
