      12
SCF Done            -186.35103317
Al           -1.700640261         2.559361420        -1.230217291
Al           -0.531359355         0.000498206        -2.347429374
Al           -2.200992976        -0.339213918        -0.515325837
F            -0.757432541         3.685722636        -0.161800657
F            -3.017205247         3.176291993        -2.315637592
F            -1.377281480        -1.674999027        -1.720676961
F            -2.525984962         1.449661083         0.053251562
F            -3.247282763        -1.303082632         0.602402253
F             0.621338398        -0.515953341        -3.642669504
F            -0.335373925         1.895373914        -2.350525031
F            -2.454892157         0.474372151        -2.304185228
F            -0.302636368         0.158799239        -0.401304408
