12
Properties=species:S:1:pos:R:3:forces:R:3 energy=-187.20766178 pbc="F F F"
Al    0.44021739299999996    -0.534982558    1.6676383389999998    -0.177219    -0.006953    -0.054047
Al    2.353314165    -1.786856072    -0.42909549700000005    0.091592    -0.079307    -0.127067
Al    -0.9800449809999999    -1.843397558    -1.073391943    0.060435    0.100228    0.176002
F    3.519219107    -0.423040593    -0.8125063800000001    0.076422    -0.098424    -0.064445
F    -2.253361454    -0.781251488    -1.901469397    0.031455    0.108832    0.072295
F    2.756088595    -3.557438494    -0.30338064300000006    0.109328    0.035367    -0.08154
F    -1.4434809659999999    -3.593051002    -1.39300132    0.068383    -0.057211    0.103717
F    2.007754397    -1.355826593    1.290186002    -0.037914    -0.014246    -0.018691
F    0.8137285639999999    -1.573384482    -1.4305036649999998    -7.6e-05    0.000105    0.001591
F    0.377108552    -1.284366963    3.352781289    -0.111378    -0.006153    -0.012531
F    0.540560571    1.2030800990000001    1.171575136    -0.070069    0.000779    -0.009358
F    -0.8903710680000001    -1.346946183    0.6999738139999999    -0.040962    0.016981    0.014076
