12
Properties=species:S:1:pos:R:3:forces:R:3 energy=-184.41647077 pbc="F F F"
Al    0.17214257200000002    -2.317142511    -1.5716271609999999    1.994278    1.339026    -3.607458
Al    1.88421673    -0.5780221560000001    -0.579249924    0.927094    0.254913    -4.226044
Al    -0.422116606    0.249335003    -1.547165383    2.364755    -0.260761    -3.622682
F    3.7980332879999996    -0.140661516    0.040189177000000006    -0.028112    -0.009473    0.311304
F    -0.208874974    -4.211165793    -2.282385436    -0.148641    -0.131906    0.24144
F    2.237996238    -1.8834679760000002    -2.3984451890000003    -1.440748    0.531554    1.553993
F    1.620432795    0.782823339    -2.3731204200000002    -1.05395    -1.1387    1.538099
F    -1.599903422    1.795532631    -2.225223711    -0.190481    0.048763    0.243159
F    -1.049795886    -1.252166652    -1.1321359690000001    -1.459598    -0.352162    1.48671
F    -0.158121974    -1.0241168090000001    -3.404063481    0.060228    -0.006835    2.183925
F    0.565385596    0.388655898    -0.195907802    -0.652505    0.46774    1.954534
F    1.126111134    -2.0326427099999997    -0.218948373    -0.372318    -0.742158    1.943019
