      12
SCF Done            -184.41647077
Al            0.330171572        -2.314259511        -1.945563161
Al            2.089343730        -0.527166156        -0.925871924
Al           -0.280538606         0.322891003        -1.920467383
F             3.620914288        -0.181082516        -0.022483823
F            -0.171034974        -4.033216793        -2.220459436
F             2.050404238        -1.795880976        -2.228488189
F             1.491259795         0.618600339        -2.205511420
F            -1.487439422         1.651241631        -2.166364711
F            -1.200984886        -1.288972652        -0.943373969
F            -0.119375974        -1.017598809        -3.139104481
F             0.481062596         0.419771898         0.031612198
F             1.064998134        -2.101761710         0.007616627
