12
Properties=species:S:1:pos:R:3:forces:R:3 energy=-185.52487427 pbc="F F F"
Al    0.302659972    -2.338901611    -1.905068361    -0.165521    1.09643    1.278687
Al    2.01933113    -0.562242256    -0.841901624    -0.248545    -0.300269    -0.564652
Al    -0.32214120599999996    0.271430903    -1.828611583    0.380669    -0.559191    -0.369725
F    3.540487288    -0.112925116    0.065157477    0.16595    0.027868    0.319035
F    -0.434238974    -4.353044393    -1.844756136    0.001202    -1.067582    -0.916058
F    2.096435638    -1.722635776    -2.437563589    0.020117    0.137258    0.064609
F    1.533808495    0.7162728389999999    -2.24143242    0.021724    0.029453    -0.011273
F    -1.4613754220000001    1.693398531    -2.027760911    -0.340581    0.237361    0.15076
F    -1.098726986    -1.211472852    -1.120628769    0.075017    0.09339    0.011261
F    0.03680802600000001    -0.989670009    -3.3111846810000003    0.034485    0.128854    0.070852
F    0.5227594959999999    0.424532498    -0.057993502    0.043013    0.060701    -0.021979
F    1.1596361339999999    -2.0408706100000003    -0.168171173    0.012468    0.11573    -0.011515
