12
Properties=species:S:1:pos:R:3:forces:R:3 energy=-186.30782042 pbc="F F F"
Al    -0.166526657    1.756102096    2.198119221    -0.886071    1.19685    -0.206835
Al    2.403209196    2.733718525    1.5874482749999999    -0.989976    0.623147    -0.170486
Al    0.9220717580000001    3.0268499810000002    -0.668585953    -0.785396    0.532589    -0.408729
F    1.0197418520000001    3.125979819    2.877703732    0.34144    -0.150653    -0.14122
F    -1.627529447    2.8073298429999998    2.632590995    0.769107    -0.55143    0.002805
F    -0.53123096    -0.006685917999999985    2.59679326    -0.025154    -0.471192    0.159137
F    1.714058869    0.965155885    1.732618234    0.097806    -0.357628    0.00582
F    2.642129842    2.086626172    -0.320557454    0.563875    -0.349242    0.167059
F    0.496180214    3.465276252    -2.3579939039999998    0.108728    -0.114915    0.347657
F    1.545696368    4.219298887    0.665889165    0.190184    -0.382674    0.084783
F    4.070967466    3.182554911    2.199906168    0.476602    0.067251    0.19054
F    -0.3122709    2.086051668    0.277945505    0.138855    -0.042104    -0.03053
