12
Properties=species:S:1:pos:R:3:forces:R:3 energy=-169.80329903 pbc="F F F"
Al    -0.157287657    1.6293345959999999    2.140111521    -4.114561    2.469584    1.124781
Al    2.648053096    2.095844025    1.9795455750000002    -14.871439    -21.250857    -0.872222
Al    1.351275658    2.259061581    -0.221774653    13.492941    -9.406542    3.369084
F    0.991791352    3.154005519    2.8568548320000002    -1.55635    1.937038    0.718331
F    -1.433973947    2.589206543    2.179256095    4.176537    -2.935473    -0.108054
F    -0.4989864600000001    0.022726782    2.74238226    0.27539    0.285567    -0.352989
F    1.956213369    1.356276585    1.879964234    18.093599    19.814453    2.412604
F    3.0211283420000004    1.863987872    0.12891554600000002    -9.677735    3.945577    -6.517349
F    0.917934714    3.3002559519999997    -3.096737804    -1.137098    1.601734    -2.33184
F    1.708507868    4.379662586999999    0.603461265    -0.205789    4.973515    2.518809
F    3.8812079660000003    3.050746611    2.349772168    -2.634691    -1.042922    -1.051415
F    0.053830600000000006    1.842018368    0.147564505    -1.840804    -0.391675    1.09026
