      12
SCF Done            -169.80329903
Al           -0.138080657         1.655733596         2.177474521
Al            2.644679096         2.072862025         2.012248575
Al            1.572756658         2.409466581        -0.715056653
F             0.978325352         3.143085519         2.848122832
F            -1.439284947         2.596021543         2.171095095
F            -0.505875460        -0.012479218         2.748517260
F             1.933608369         1.339698585         1.886741234
F             2.724773342         2.011980872        -0.141528454
F             1.067210714         3.071695952        -2.475015804
F             1.692804868         4.342548587         0.641418265
F             3.932558966         3.092484611         2.377754168
F            -0.069260400         1.790548368         0.238647505
