      12
SCF Done            -186.32272013
Al           -1.715179161         2.556403220        -1.214263691
Al           -0.511341055        -0.024706194        -2.356072674
Al           -2.199301576        -0.309592318        -0.530504837
F            -0.761807041         3.684832536        -0.157000457
F            -3.015729947         3.176592193        -2.317256392
F            -1.354053080        -1.670272827        -1.746165661
F            -2.543505862         1.469223383         0.088444762
F            -3.233305063        -1.275531632         0.592859153
F             0.634130098        -0.538057741        -3.662500704
F            -0.364309325         1.866359414        -2.334741331
F            -2.458770557         0.473583051        -2.299929428
F            -0.307945268         0.157719039        -0.395478908
