12
Properties=species:S:1:pos:R:3:forces:R:3 energy=-187.24267638 pbc="F F F"
Al    0.31221989299999997    -0.582075158    1.7721270390000001    -0.043364    -0.012024    0.051175
Al    2.3703741650000003    -1.769210272    -0.5474404970000001    0.000745    -0.018147    -0.013157
Al    -0.860322681    -1.8592240580000001    -1.024172443    0.052558    0.027953    -0.031026
F    3.581210007    -0.7439529930000001    -1.48552998    0.037951    0.041841    -0.028323
F    -1.734552554    -0.431315388    -1.7551168970000002    -0.029883    0.044221    -0.027315
F    2.592876795    -3.5540615939999998    -0.045398943000000025    0.006878    -0.048059    0.001088
F    -1.348285566    -3.5954411019999997    -1.2540057199999999    -0.016893    -0.075912    -0.011839
F    2.050685797    -0.812933793    1.045480002    0.056723    -0.014923    0.024823
F    0.861641664    -1.6334834820000002    -1.570311465    -0.030113    -0.000666    -0.004229
F    0.333981052    -1.438049563    3.406965089    0.000964    -0.007325    0.019011
F    -0.11964172900000003    1.222773599    1.4884000359999998    -0.004849    0.081963    -0.022385
F    -0.8011376680000001    -1.671811183    0.801032014    -0.030718    -0.018919    0.042174
