      12
SCF Done            -187.24267638
Al            0.338178893        -0.599462158         1.738746039
Al            2.357156165        -1.791851272        -0.512370497
Al           -0.884568681        -1.827098058        -0.996858443
F             3.518954007        -0.562748993        -1.174562980
F            -1.812936554        -0.497289388        -1.815285897
F             2.683472795        -3.576982594        -0.403136943
F            -1.252494566        -3.599620102        -1.169539720
F             1.940782797        -1.303576793         1.200337002
F             0.841105664        -1.508373482        -1.487919465
F             0.152355052        -1.171803563         3.449597089
F             0.278308271         1.133512599         1.179947036
F            -0.919059668        -1.561978183         0.817517014
