12
Properties=species:S:1:pos:R:3:forces:R:3 energy=-185.45355303 pbc="F F F"
Al    -0.127259238    1.08285736    -1.903619736    -0.934261    -0.219749    -0.935216
Al    -0.549926114    1.055061653    1.428522236    -1.371555    -0.27126    1.318947
Al    -3.3085839189999997    0.39593748900000003    -1.870873942    1.238758    0.271757    0.21187
F    -3.484352661    0.321947408    -3.758597508    0.240776    0.064328    0.644484
F    -1.537433357    -0.18979630099999995    -1.830134245    -1.601544    -1.30479    -0.047181
F    -1.937561887    1.6616350030000002    -1.865445583    -1.996915    0.524632    -0.082073
F    -1.9964719249999998    0.722019939    0.357964024    -0.680848    -0.155761    -0.451833
F    0.788072327    1.3163316429999998    -0.03419251099999998    2.248696    0.491931    0.311745
F    -0.294347175    2.819664997    2.006829347    0.298032    1.221312    0.258535
F    0.40673611499999995    -0.424315658    2.0686972449999996    0.773573    -0.979059    0.3005
F    -4.452971292    0.17743347    -0.35986656499999997    0.538109    0.104468    -0.620137
F    0.935057027    1.280220937    -3.593089429    1.247179    0.25219    -0.90964
