      12
SCF Done            -164.86089425
Al           -0.367885238         1.031304360        -1.879964736
Al           -0.556902981         1.053717691         1.437094201
Al           -2.977482903         0.467934478        -1.847827209
F            -3.514022655         0.319457336        -3.552953761
F            -1.489619358        -0.666649304        -1.847889338
F            -2.090721893         2.114704989        -1.900936761
F            -2.070199777         0.707425055         0.428188909
F             0.774088416         1.307245697        -0.352127575
F            -0.287782981         2.814042004         2.013163371
F             0.410343208        -0.416257671         2.074770158
F            -4.237538167         0.218948526        -0.624335713
F             0.832681019         1.263464903        -3.311580444
