12
Properties=species:S:1:pos:R:3:forces:R:3 energy=-184.25729571 pbc="F F F"
Al    -0.17631323799999998    1.07155836    -1.940147536    -1.849677    -0.422036    -1.168465
Al    -0.6293261139999999    1.039810653    1.528571036    -1.756409    -0.354353    1.323123
Al    -3.302348319    0.397484089    -1.860427942    1.9602    0.429016    0.282312
F    -3.478492461    0.323597408    -3.7384925079999998    0.351444    0.094324    0.963162
F    -1.537450957    -0.22336330100000007    -1.834414045    -2.306846    -1.784407    -0.048872
F    -1.951401287    1.6920208030000001    -1.870944583    -2.837269    0.669914    -0.095682
F    -2.0149057249999998    0.717763539    0.34366882400000004    -1.130219    -0.258183    -0.729966
F    0.892866327    1.3376718429999999    -0.10274471099999999    3.090237    0.686316    0.967782
F    -0.281054175    2.852440197    2.0126241470000004    0.519899    1.93098    0.329437
F    0.432327115    -0.448445858    2.0755764450000003    1.268043    -1.530751    0.395458
F    -4.455231491999999    0.17670287    -0.372551565    0.809219    0.157166    -0.929176
F    0.965709227    1.286548537    -3.6086956289999996    1.881378    0.382015    -1.289112
