      12
SCF Done            -167.95861322
Al           -0.104213213         1.664974372         2.133281820
Al            2.518222696         2.644275625         1.811861775
Al            1.398786284         2.611401384        -0.633213854
F             0.971201978         3.098448536         2.873902663
F            -1.640041083         2.650101522         2.158833186
F            -0.448890871        -0.020181866         2.737842630
F             1.793906753         0.907091993         1.903665665
F             3.001782545         1.839975653        -0.057199816
F             1.063726809         3.043766133        -2.361841412
F             1.752728894         3.987683987         0.643029667
F             4.175699568         3.098084177         2.383749580
F            -0.037610591         1.838052810         0.207692293
