12
Properties=species:S:1:pos:R:3:forces:R:3 energy=-182.45400558 pbc="F F F"
Al    1.14888038    -0.062406383    2.436488573    0.145152    0.405416    -0.619897
Al    1.1926676    1.1102197999999999    -0.0678599    0.136575    0.128306    -0.024714
Al    -0.432857362    0.71461295    -2.270108273    0.521256    0.220636    0.499272
F    -1.840640172    -0.47963625299999996    -2.298383206    0.06096    0.004248    0.105947
F    2.512152253    -0.443783353    0.987174452    1.929428    -3.802795    1.056214
F    0.112792539    1.7947020900000001    -3.620897133    0.033384    0.034095    -0.012072
F    -0.47282181    2.339171553    -1.060277349    -3.844779    2.003435    -0.709576
F    2.575731657    2.409537012    -0.31815724300000003    2.909333    2.733166    -0.526511
F    1.477580739    0.06444280499999999    -2.091284454    0.554476    -3.12736    -3.03508
F    0.561747617    1.830941529    2.018180939    -2.469826    1.327985    3.381708
F    2.487823369    0.6279823760000001    3.446217237    0.03721    0.032221    -0.000696
F    -0.079564825    -1.344755852    2.9418487709999996    -0.013171    0.040646    -0.114593
