      12
SCF Done            -182.45400558
Al            1.283264380         0.052047617         2.438188573
Al            1.377443600         1.283807800        -0.101299900
Al           -0.314959362         0.837165950        -2.317465273
F            -1.666704172        -0.369972253        -2.211293206
F             2.234525253        -0.694823353         0.911199452
F             0.054402539         1.824803090        -3.797769133
F            -0.717006810         2.099995553        -0.889868349
F             2.823810657         2.642594012        -0.363053243
F             1.275308739        -0.223615195        -1.943030454
F             0.242207617         1.628784529         1.964361939
F             2.548194369         0.599742376         3.622730237
F             0.019247175        -1.198187852         2.805399771
