12
Properties=species:S:1:pos:R:3:forces:R:3 energy=-181.23068158 pbc="F F F"
Al    1.72774768    -0.403316883    2.085441473    0.067879    2.758051    -5.956739
Al    1.1204074    1.2899936    -0.42416600000000004    -8.463355    -1.834534    -11.963004
Al    -0.399842762    0.80970865    -2.433560573    -1.993847    -0.444778    -2.790535
F    -1.551822772    -0.263334853    -2.2263648060000003    4.044044    3.729316    -0.577754
F    1.8656200530000002    -0.274988153    1.254226652    0.153553    -0.911655    2.818681
F    0.019710939    1.74331649    -3.680140733    -1.288856    -2.804121    3.748597
F    -0.18599441    1.884330953    -0.650350649    5.436524    -1.502301    2.8058
F    2.587600157    2.422721312    -0.312670443    0.763641    0.52676    0.282417
F    1.307123239    0.039008205000000004    -1.559459454    1.113641    3.539432    5.09094
F    0.16955251699999999    1.912139829    1.612573639    0.360536    -1.153055    2.709262
F    2.607742769    0.680960876    3.7373798369999998    2.5876    0.988467    2.714218
F    -0.127767725    -1.2668573520000002    2.866911471    -2.781358    -2.891582    1.118115
