12
-186.35103317
Al		-1.700297839		2.559104405		-1.229952886
Al		-0.53156132		0.000713334		-2.347745086
Al		-2.201362636		-0.339032902		-0.515457569
F		-0.7545508		3.681731981		-0.159914413
F		-3.01640087		3.178871436		-2.314426269
F		-1.374703558		-1.675139157		-1.718353614
F		-2.52917486		1.44968766		0.051534915
F		-3.24662499		-1.303538506		0.602691824
F		0.62177595		-0.51645404		-3.64213822
F		-0.337405223		1.895636212		-2.353512992
F		-2.455570877		0.472398891		-2.305169638
F		-0.303822663		0.16282609		-0.401638808
