12
-186.35103317
Al		-1.700160899		2.559001573		-1.229847158
Al		-0.5316421		0.000799386		-2.347871378
Al		-2.201510496		-0.338960498		-0.515510257
F		-0.753398128		3.680135689		-0.159159949
F		-3.01607915		3.179903184		-2.313941769
F		-1.373672386		-1.675195205		-1.717424278
F		-2.530450852		1.44969828		0.050848247
F		-3.246361814		-1.30372089		0.602807688
F		0.621951014		-0.516654352		-3.641925668
F		-0.338217755		1.895741128		-2.35470822
F		-2.455842365		0.471609587		-2.305563402
F		-0.304297183		0.164436854		-0.401772576
