12
-186.35103317
Al		-1.699955489		2.558847325		-1.229688566
Al		-0.53176327		0.000928464		-2.348060816
Al		-2.201732286		-0.338851892		-0.515589289
F		-0.75166912		3.677741251		-0.158028253
F		-3.01559657		3.181450806		-2.313215019
F		-1.372125628		-1.675279277		-1.716030274
F		-2.53236484		1.44971421		0.049818245
F		-3.24596705		-1.303994466		0.602981484
F		0.62221361		-0.51695482		-3.64160684
F		-0.339436553		1.895898502		-2.356501062
F		-2.456249597		0.470425631		-2.306154048
F		-0.305008963		0.166853		-0.401973228
