12
-186.35103317
Al		-1.699887019		2.558795909		-1.229635702
Al		-0.53180366		0.00097149		-2.348123962
Al		-2.201806216		-0.33881569		-0.515615633
F		-0.751092784		3.676943105		-0.157651021
F		-3.01543571		3.18196668		-2.312972769
F		-1.371610042		-1.675307301		-1.715565606
F		-2.533002836		1.44971952		0.049474911
F		-3.245835462		-1.304085658		0.603039416
F		0.622301142		-0.517054976		-3.641500564
F		-0.339842819		1.89595096		-2.357098676
F		-2.456385341		0.470030979		-2.30635093
F		-0.305246223		0.167658382		-0.402040112
