12
-186.35103317
Al		-1.699818549		2.558744493		-1.229582838
Al		-0.53184405		0.001014516		-2.348187108
Al		-2.201880146		-0.338779488		-0.515641977
F		-0.750516448		3.676144959		-0.157273789
F		-3.01527485		3.182482554		-2.312730519
F		-1.371094456		-1.675335325		-1.715100938
F		-2.533640832		1.44972483		0.049131577
F		-3.245703874		-1.30417685		0.603097348
F		0.622388674		-0.517155132		-3.641394288
F		-0.340249085		1.896003418		-2.35769629
F		-2.456521085		0.469636327		-2.306547812
F		-0.305483483		0.168463764		-0.402106996
