12
-186.35103317
Al		-1.699715844		2.558667369		-1.229503542
Al		-0.531904635		0.001079055		-2.348281827
Al		-2.201991041		-0.338725185		-0.515681493
F		-0.749651944		3.67494774		-0.156707941
F		-3.01503356		3.183256365		-2.312367144
F		-1.370321077		-1.675377361		-1.714403936
F		-2.534597826		1.449732795		0.048616576
F		-3.245506492		-1.304313638		0.603184246
F		0.622519972		-0.517305366		-3.641234874
F		-0.340858484		1.896082105		-2.358592711
F		-2.456724701		0.469044349		-2.306843135
F		-0.305839373		0.169671837		-0.402207322
