12
-186.35103317
Al		-1.699544669		2.558538829		-1.229371382
Al		-0.53200561		0.00118662		-2.348439692
Al		-2.202175866		-0.33863468		-0.515747353
F		-0.748211104		3.672952375		-0.155764861
F		-3.01463141		3.18454605		-2.311761519
F		-1.369032112		-1.675447421		-1.713242266
F		-2.536192816		1.44974607		0.047758241
F		-3.245177522		-1.304541618		0.603329076
F		0.622738802		-0.517555756		-3.640969184
F		-0.341874149		1.89621325		-2.360086746
F		-2.457064061		0.468057719		-2.30733534
F		-0.306432523		0.171685292		-0.402374532
