12
-186.35103317
Al		-1.699305024		2.558358873		-1.229186358
Al		-0.532146975		0.001337211		-2.348660703
Al		-2.202434621		-0.338507973		-0.515839557
F		-0.746193928		3.670158864		-0.154444549
F		-3.0140684		3.186351609		-2.310913644
F		-1.367227561		-1.675545505		-1.711615928
F		-2.538425802		1.449764655		0.046556572
F		-3.244716964		-1.30486079		0.603531838
F		0.623045164		-0.517906302		-3.640597218
F		-0.34329608		1.896396853		-2.362178395
F		-2.457539165		0.466676437		-2.308024427
F		-0.307262933		0.174504129		-0.402608626
