12
-186.35103317
Al		-1.699202319		2.558281749		-1.229107062
Al		-0.53220756		0.00140175		-2.348755422
Al		-2.202545516		-0.33845367		-0.515879073
F		-0.745329424		3.668961645		-0.153878701
F		-3.01382711		3.18712542		-2.310550269
F		-1.366454182		-1.675587541		-1.710918926
F		-2.539382796		1.44977262		0.046041571
F		-3.244519582		-1.304997578		0.603618736
F		0.623176462		-0.518056536		-3.640437804
F		-0.343905479		1.89647554		-2.363074816
F		-2.457742781		0.466084459		-2.30831975
F		-0.307618823		0.175712202		-0.402708952
