12
-186.35103317
Al		-1.699065379		2.558178917		-1.229001334
Al		-0.53228834		0.001487802		-2.348881714
Al		-2.202693376		-0.338381266		-0.515931761
F		-0.744176752		3.667365353		-0.153124237
F		-3.01350539		3.188157168		-2.310065769
F		-1.36542301		-1.675643589		-1.70998959
F		-2.540658788		1.44978324		0.045354903
F		-3.244256406		-1.305179962		0.6037346
F		0.623351526		-0.518256848		-3.640225252
F		-0.344718011		1.896580456		-2.364270044
F		-2.458014269		0.465295155		-2.308713514
F		-0.308093343		0.177322966		-0.40284272
