12
-186.35103317
Al		-1.698996909		2.558127501		-1.22894847
Al		-0.53232873		0.001530828		-2.34894486
Al		-2.202767306		-0.338345064		-0.515958105
F		-0.743600416		3.666567207		-0.152747005
F		-3.01334453		3.188673042		-2.309823519
F		-1.364907424		-1.675671613		-1.709524922
F		-2.541296784		1.44978855		0.045011569
F		-3.244124818		-1.305271154		0.603792532
F		0.623439058		-0.518357004		-3.640118976
F		-0.345124277		1.896632914		-2.364867658
F		-2.458150013		0.464900503		-2.308910396
F		-0.308330603		0.178128348		-0.402909604
