12
-186.35103317
Al		-1.700469014		2.559232945		-1.230085046
Al		-0.531460345		0.000605769		-2.347587221
Al		-2.201177811		-0.339123407		-0.515391709
F		-0.75599164		3.683727346		-0.160857493
F		-3.01680302		3.177581751		-2.315031894
F		-1.375992523		-1.675069097		-1.719515284
F		-2.52757987		1.449674385		0.05239325
F		-3.24695396		-1.303310526		0.602546994
F		0.62155712		-0.51620365		-3.64240391
F		-0.336389558		1.895505067		-2.352018957
F		-2.455231517		0.473385521		-2.304677433
F		-0.303229513		0.160812635		-0.401471598
