12
-186.35103317
Al		-1.698859969		2.558024669		-1.228842742
Al		-0.53240951		0.00161688		-2.349071152
Al		-2.202915166		-0.33827266		-0.516010793
F		-0.742447744		3.664970915		-0.151992541
F		-3.01302281		3.18970479		-2.309339019
F		-1.363876252		-1.675727661		-1.708595586
F		-2.542572776		1.44979917		0.044324901
F		-3.243861642		-1.305453538		0.603908396
F		0.623614122		-0.518557316		-3.639906424
F		-0.345936809		1.89673783		-2.366062886
F		-2.458421501		0.464111199		-2.30930416
F		-0.308805123		0.179739112		-0.403043372
