12
-186.35103317
Al		-1.698791499		2.557973253		-1.228789878
Al		-0.5324499		0.001659906		-2.349134298
Al		-2.202989096		-0.338236458		-0.516037137
F		-0.741871408		3.664172769		-0.151615309
F		-3.01286195		3.190220664		-2.309096769
F		-1.363360666		-1.675755685		-1.708130918
F		-2.543210772		1.44980448		0.043981567
F		-3.243730054		-1.30554473		0.603966328
F		0.623701654		-0.518657472		-3.639800148
F		-0.346343075		1.896790288		-2.3666605
F		-2.458557245		0.463716547		-2.309501042
F		-0.309042383		0.180544494		-0.403110256
