12
-186.35103317
Al		-1.698688794		2.557896129		-1.228710582
Al		-0.532510485		0.001724445		-2.349229017
Al		-2.203099991		-0.338182155		-0.516076653
F		-0.741006904		3.66297555		-0.151049461
F		-3.01262066		3.190994475		-2.308733394
F		-1.362587287		-1.675797721		-1.707433916
F		-2.544167766		1.449812445		0.043466566
F		-3.243532672		-1.305681518		0.604053226
F		0.623832952		-0.518807706		-3.639640734
F		-0.346952474		1.896868975		-2.367556921
F		-2.458760861		0.463124569		-2.309796365
F		-0.309398273		0.181752567		-0.403210582
