12
-186.35103317
Al		-1.698586089		2.557819005		-1.228631286
Al		-0.53257107		0.001788984		-2.349323736
Al		-2.203210886		-0.338127852		-0.516116169
F		-0.7401424		3.661778331		-0.150483613
F		-3.01237937		3.191768286		-2.308370019
F		-1.361813908		-1.675839757		-1.706736914
F		-2.54512476		1.44982041		0.042951565
F		-3.24333529		-1.305818306		0.604140124
F		0.62396425		-0.51895794		-3.63948132
F		-0.347561873		1.896947662		-2.368453342
F		-2.458964477		0.462532591		-2.310091688
F		-0.309754163		0.18296064		-0.403310908
