12
-186.35103317
Al		-1.698551854		2.557793297		-1.228604854
Al		-0.532591265		0.001810497		-2.349355309
Al		-2.203247851		-0.338109751		-0.516129341
F		-0.739854232		3.661379258		-0.150294997
F		-3.01229894		3.192026223		-2.308248894
F		-1.361556115		-1.675853769		-1.70650458
F		-2.545443758		1.449823065		0.042779898
F		-3.243269496		-1.305863902		0.60416909
F		0.624008016		-0.519008018		-3.639428182
F		-0.347765006		1.896973891		-2.368752149
F		-2.459032349		0.462335265		-2.310190129
F		-0.309872793		0.183363331		-0.40334435
