12
-186.35103317
Al		-1.698483384		2.557741881		-1.22855199
Al		-0.532631655		0.001853523		-2.349418455
Al		-2.203321781		-0.338073549		-0.516155685
F		-0.739277896		3.660581112		-0.149917765
F		-3.01213808		3.192542097		-2.308006644
F		-1.361040529		-1.675881793		-1.706039912
F		-2.546081754		1.449828375		0.042436564
F		-3.243137908		-1.305955094		0.604227022
F		0.624095548		-0.519108174		-3.639321906
F		-0.348171272		1.897026349		-2.369349763
F		-2.459168093		0.461940613		-2.310387011
F		-0.310110053		0.184168713		-0.403411234
