12
-186.35103317
Al		-1.698380679		2.557664757		-1.228472694
Al		-0.53269224		0.001918062		-2.349513174
Al		-2.203432676		-0.338019246		-0.516195201
F		-0.738413392		3.659383893		-0.149351917
F		-3.01189679		3.193315908		-2.307643269
F		-1.36026715		-1.675923829		-1.70534291
F		-2.547038748		1.44983634		0.041921563
F		-3.242940526		-1.306091882		0.60431392
F		0.624226846		-0.519258408		-3.639162492
F		-0.348780671		1.897105036		-2.370246184
F		-2.459371709		0.461348635		-2.310682334
F		-0.310465943		0.185376786		-0.40351156
