12
-186.35103317
Al		-1.698346444		2.557639049		-1.228446262
Al		-0.532712435		0.001939575		-2.349544747
Al		-2.203469641		-0.338001145		-0.516208373
F		-0.738125224		3.65898482		-0.149163301
F		-3.01181636		3.193573845		-2.307522144
F		-1.360009357		-1.675937841		-1.705110576
F		-2.547357746		1.449838995		0.041749896
F		-3.242874732		-1.306137478		0.604342886
F		0.624270612		-0.519308486		-3.639109354
F		-0.348983804		1.897131265		-2.370544991
F		-2.459439581		0.461151309		-2.310780775
F		-0.310584573		0.185779477		-0.403545002
