12
-186.35103317
Al		-1.698277974		2.557587633		-1.228393398
Al		-0.532752825		0.001982601		-2.349607893
Al		-2.203543571		-0.337964943		-0.516234717
F		-0.737548888		3.658186674		-0.148786069
F		-3.0116555		3.194089719		-2.307279894
F		-1.359493771		-1.675965865		-1.704645908
F		-2.547995742		1.449844305		0.041406562
F		-3.242743144		-1.30622867		0.604400818
F		0.624358144		-0.519408642		-3.639003078
F		-0.34939007		1.897183723		-2.371142605
F		-2.459575325		0.460756657		-2.310977657
F		-0.310821833		0.186584859		-0.403611886
