12
-186.35103317
Al		-1.700400544		2.559181529		-1.230032182
Al		-0.531500735		0.000648795		-2.347650367
Al		-2.201251741		-0.339087205		-0.515418053
F		-0.755415304		3.6829292		-0.160480261
F		-3.01664216		3.178097625		-2.314789644
F		-1.375476937		-1.675097121		-1.719050616
F		-2.528217866		1.449679695		0.052049916
F		-3.246822372		-1.303401718		0.602604926
F		0.621644652		-0.516303806		-3.642297634
F		-0.336795824		1.895557525		-2.352616571
F		-2.455367261		0.472990869		-2.304874315
F		-0.303466773		0.161618017		-0.401538482
