12
-186.35103317
Al		-1.698243739		2.557561925		-1.228366966
Al		-0.53277302		0.002004114		-2.349639466
Al		-2.203580536		-0.337946842		-0.516247889
F		-0.73726072		3.657787601		-0.148597453
F		-3.01157507		3.194347656		-2.307158769
F		-1.359235978		-1.675979877		-1.704413574
F		-2.54831474		1.44984696		0.041234895
F		-3.24267735		-1.306274266		0.604429784
F		0.62440191		-0.51945872		-3.63894994
F		-0.349593203		1.897209952		-2.371441412
F		-2.459643197		0.460559331		-2.311076098
F		-0.310940463		0.18698755		-0.403645328
