12
-186.35103317
Al		-1.698141034		2.557484801		-1.22828767
Al		-0.532833605		0.002068653		-2.349734185
Al		-2.203691431		-0.337892539		-0.516287405
F		-0.736396216		3.656590382		-0.148031605
F		-3.01133378		3.195121467		-2.306795394
F		-1.358462599		-1.676021913		-1.703716572
F		-2.549271734		1.449854925		0.040719894
F		-3.242479968		-1.306411054		0.604516682
F		0.624533208		-0.519608954		-3.638790526
F		-0.350202602		1.897288639		-2.372337833
F		-2.459846813		0.459967353		-2.311371421
F		-0.311296353		0.188195623		-0.403745654
