12
-186.35103317
Al		-1.698038329		2.557407677		-1.228208374
Al		-0.53289419		0.002133192		-2.349828904
Al		-2.203802326		-0.337838236		-0.516326921
F		-0.735531712		3.655393163		-0.147465757
F		-3.01109249		3.195895278		-2.306432019
F		-1.35768922		-1.676063949		-1.70301957
F		-2.550228728		1.44986289		0.040204893
F		-3.242282586		-1.306547842		0.60460358
F		0.624664506		-0.519759188		-3.638631112
F		-0.350812001		1.897367326		-2.373234254
F		-2.460050429		0.459375375		-2.311666744
F		-0.311652243		0.189403696		-0.40384598
