12
-186.35103317
Al		-1.697935624		2.557330553		-1.228129078
Al		-0.532954775		0.002197731		-2.349923623
Al		-2.203913221		-0.337783933		-0.516366437
F		-0.734667208		3.654195944		-0.146899909
F		-3.0108512		3.196669089		-2.306068644
F		-1.356915841		-1.676105985		-1.702322568
F		-2.551185722		1.449870855		0.039689892
F		-3.242085204		-1.30668463		0.604690478
F		0.624795804		-0.519909422		-3.638471698
F		-0.3514214		1.897446013		-2.374130675
F		-2.460254045		0.458783397		-2.311962067
F		-0.312008133		0.190611769		-0.403946306
