12
-186.35103317
Al		-1.697867154		2.557279137		-1.228076214
Al		-0.532995165		0.002240757		-2.349986769
Al		-2.203987151		-0.337747731		-0.516392781
F		-0.734090872		3.653397798		-0.146522677
F		-3.01069034		3.197184963		-2.305826394
F		-1.356400255		-1.676134009		-1.7018579
F		-2.551823718		1.449876165		0.039346558
F		-3.241953616		-1.306775822		0.60474841
F		0.624883336		-0.520009578		-3.638365422
F		-0.351827666		1.897498471		-2.374728289
F		-2.460389789		0.458388745		-2.312158949
F		-0.312245393		0.191417151		-0.40401319
