12
-186.35103317
Al		-1.697832919		2.557253429		-1.228049782
Al		-0.53301536		0.00226227		-2.350018342
Al		-2.204024116		-0.33772963		-0.516405953
F		-0.733802704		3.652998725		-0.146334061
F		-3.01060991		3.1974429		-2.305705269
F		-1.356142462		-1.676148021		-1.701625566
F		-2.552142716		1.44987882		0.039174891
F		-3.241887822		-1.306821418		0.604777376
F		0.624927102		-0.520059656		-3.638312284
F		-0.352030799		1.8975247		-2.375027096
F		-2.460457661		0.458191419		-2.31225739
F		-0.312364023		0.191819842		-0.404046632
