12
-186.35103317
Al		-1.697798684		2.557227721		-1.22802335
Al		-0.533035555		0.002283783		-2.350049915
Al		-2.204061081		-0.337711529		-0.516419125
F		-0.733514536		3.652599652		-0.146145445
F		-3.01052948		3.197700837		-2.305584144
F		-1.355884669		-1.676162033		-1.701393232
F		-2.552461714		1.449881475		0.039003224
F		-3.241822028		-1.306867014		0.604806342
F		0.624970868		-0.520109734		-3.638259146
F		-0.352233932		1.897550929		-2.375325903
F		-2.460525533		0.457994093		-2.312355831
F		-0.312482653		0.192222533		-0.404080074
