12
-186.35103317
Al		-1.697661744		2.557124889		-1.227917622
Al		-0.533116335		0.002369835		-2.350176207
Al		-2.204208941		-0.337639125		-0.516471813
F		-0.732361864		3.65100336		-0.145390981
F		-3.01020776		3.198732585		-2.305099644
F		-1.354853497		-1.676218081		-1.700463896
F		-2.553737706		1.449892095		0.038316556
F		-3.241558852		-1.307049398		0.604922206
F		0.625145932		-0.520310046		-3.638046594
F		-0.353046464		1.897655845		-2.376521131
F		-2.460797021		0.457204789		-2.312749595
F		-0.312957173		0.193833297		-0.404213842
