12
-186.35103317
Al		-1.700332074		2.559130113		-1.229979318
Al		-0.531541125		0.000691821		-2.347713513
Al		-2.201325671		-0.339051003		-0.515444397
F		-0.754838968		3.682131054		-0.160103029
F		-3.0164813		3.178613499		-2.314547394
F		-1.374961351		-1.675125145		-1.718585948
F		-2.528855862		1.449685005		0.051706582
F		-3.246690784		-1.30349291		0.602662858
F		0.621732184		-0.516403962		-3.642191358
F		-0.33720209		1.895609983		-2.353214185
F		-2.455503005		0.472596217		-2.305071197
F		-0.303704033		0.162423399		-0.401605366
