12
-186.35103317
Al		-1.697524804		2.557022057		-1.227811894
Al		-0.533197115		0.002455887		-2.350302499
Al		-2.204356801		-0.337566721		-0.516524501
F		-0.731209192		3.649407068		-0.144636517
F		-3.00988604		3.199764333		-2.304615144
F		-1.353822325		-1.676274129		-1.69953456
F		-2.555013698		1.449902715		0.037629888
F		-3.241295676		-1.307231782		0.60503807
F		0.625320996		-0.520510358		-3.637834042
F		-0.353858996		1.897760761		-2.377716359
F		-2.461068509		0.456415485		-2.313143359
F		-0.313431693		0.195444061		-0.40434761
