12
-186.35103317
Al		-1.697490569		2.556996349		-1.227785462
Al		-0.53321731		0.0024774		-2.350334072
Al		-2.204393766		-0.33754862		-0.516537673
F		-0.730921024		3.649007995		-0.144447901
F		-3.00980561		3.20002227		-2.304494019
F		-1.353564532		-1.676288141		-1.699302226
F		-2.555332696		1.44990537		0.037458221
F		-3.241229882		-1.307277378		0.605067036
F		0.625364762		-0.520560436		-3.637780904
F		-0.354062129		1.89778699		-2.378015166
F		-2.461136381		0.456218159		-2.3132418
F		-0.313550323		0.195846752		-0.404381052
