12
-186.35103317
Al		-1.697422099		2.556944933		-1.227732598
Al		-0.5332577		0.002520426		-2.350397218
Al		-2.204467696		-0.337512418		-0.516564017
F		-0.730344688		3.648209849		-0.144070669
F		-3.00964475		3.200538144		-2.304251769
F		-1.353048946		-1.676316165		-1.698837558
F		-2.555970692		1.44991068		0.037114887
F		-3.241098294		-1.30736857		0.605124968
F		0.625452294		-0.520660592		-3.637674628
F		-0.354468395		1.897839448		-2.37861278
F		-2.461272125		0.455823507		-2.313438682
F		-0.313787583		0.196652134		-0.404447936
