12
-186.35103317
Al		-1.697285159		2.556842101		-1.22762687
Al		-0.53333848		0.002606478		-2.35052351
Al		-2.204615556		-0.337440014		-0.516616705
F		-0.729192016		3.646613557		-0.143316205
F		-3.00932303		3.201569892		-2.303767269
F		-1.352017774		-1.676372213		-1.697908222
F		-2.557246684		1.4499213		0.036428219
F		-3.240835118		-1.307550954		0.605240832
F		0.625627358		-0.520860904		-3.637462076
F		-0.355280927		1.897944364		-2.379808008
F		-2.461543613		0.455034203		-2.313832446
F		-0.314262103		0.198262898		-0.404581704
