12
-186.35103317
Al		-1.701119479		2.559721397		-1.230587254
Al		-0.53107664		0.000197022		-2.346987334
Al		-2.200475476		-0.339467326		-0.515141441
F		-0.761466832		3.691309733		-0.164441197
F		-3.01833119		3.172680948		-2.317333269
F		-1.38089059		-1.674802869		-1.72392963
F		-2.521518908		1.44962394		0.055654923
F		-3.248204046		-1.302444202		0.60199664
F		0.620725566		-0.515252168		-3.643413532
F		-0.332530031		1.895006716		-2.346341624
F		-2.453941949		0.477134715		-2.302807054
F		-0.300975543		0.153161506		-0.4008362
