12
-186.35103317
Al		-1.701153714		2.559747105		-1.230613686
Al		-0.531056445		0.000175509		-2.346955761
Al		-2.200438511		-0.339485427		-0.515128269
F		-0.761755		3.691708806		-0.164629813
F		-3.01841162		3.172423011		-2.317454394
F		-1.381148383		-1.674788857		-1.724161964
F		-2.52119991		1.449621285		0.05582659
F		-3.24826984		-1.302398606		0.601967674
F		0.6206818		-0.51520209		-3.64346667
F		-0.332326898		1.894980487		-2.346042817
F		-2.453874077		0.477332041		-2.302708613
F		-0.300856913		0.152758815		-0.400802758
