12
-186.35103317
Al		-1.701187949		2.559772813		-1.230640118
Al		-0.53103625		0.000153996		-2.346924188
Al		-2.200401546		-0.339503528		-0.515115097
F		-0.762043168		3.692107879		-0.164818429
F		-3.01849205		3.172165074		-2.317575519
F		-1.381406176		-1.674774845		-1.724394298
F		-2.520880912		1.44961863		0.055998257
F		-3.248335634		-1.30235301		0.601938708
F		0.620638034		-0.515152012		-3.643519808
F		-0.332123765		1.894954258		-2.34574401
F		-2.453806205		0.477529367		-2.302610172
F		-0.300738283		0.152356124		-0.400769316
