12
-186.35103317
Al		-1.700708659		2.559412901		-1.23027007
Al		-0.53131898		0.000455178		-2.34736621
Al		-2.200919056		-0.339250114		-0.515299505
F		-0.758008816		3.686520857		-0.162177805
F		-3.01736603		3.175776192		-2.315879769
F		-1.377797074		-1.674971013		-1.721141622
F		-2.525346884		1.4496558		0.053594919
F		-3.247414518		-1.302991354		0.602344232
F		0.621250758		-0.515853104		-3.642775876
F		-0.334967627		1.895321464		-2.349927308
F		-2.454756413		0.474766803		-2.303988346
F		-0.302399103		0.157993798		-0.401237504
