12
-186.35103317
Al		-1.701393359		2.559927061		-1.23079871
Al		-0.53091508		2.4918e-05		-2.34673475
Al		-2.200179756		-0.339612134		-0.515036065
F		-0.763772176		3.694502317		-0.165950125
F		-3.01897463		3.170617452		-2.318302269
F		-1.382952934		-1.674690773		-1.725788302
F		-2.518966924		1.4496027		0.057028259
F		-3.248730398		-1.302079434		0.601764912
F		0.620375438		-0.514851544		-3.643838636
F		-0.330904967		1.894796884		-2.343951168
F		-2.453398973		0.478713323		-2.302019526
F		-0.300026503		0.149939978		-0.400568664
