12
-186.35103317
Al		-1.701564534		2.560055601		-1.23093087
Al		-0.530814105		-8.2647e-05		-2.346576885
Al		-2.199994931		-0.339702639		-0.514970205
F		-0.765213016		3.696497682		-0.166893205
F		-3.01937678		3.169327767		-2.318907894
F		-1.384241899		-1.674620713		-1.726949972
F		-2.517371934		1.449589425		0.057886594
F		-3.249059368		-1.301851454		0.601620082
F		0.620156608		-0.514601154		-3.644104326
F		-0.329889302		1.894665739		-2.342457133
F		-2.453059613		0.479699953		-2.301527321
F		-0.299433353		0.147926523		-0.400401454
