12
-186.35103317
Al		-1.701838414		2.560261265		-1.231142326
Al		-0.530652545		-0.000254751		-2.346324301
Al		-2.199699211		-0.339847447		-0.514864829
F		-0.76751836		3.699690266		-0.168402133
F		-3.02002022		3.167264271		-2.319876894
F		-1.386304243		-1.674508617		-1.728808644
F		-2.51481995		1.449568185		0.05925993
F		-3.24958572		-1.301486686		0.601388354
F		0.61980648		-0.51420053		-3.64452943
F		-0.328264238		1.894455907		-2.340066677
F		-2.452516637		0.481278561		-2.300739793
F		-0.298484313		0.144704995		-0.400133918
