12
-186.35103317
Al		-1.701906884		2.560312681		-1.23119519
Al		-0.530612155		-0.000297777		-2.346261155
Al		-2.199625281		-0.339883649		-0.514838485
F		-0.768094696		3.700488412		-0.168779365
F		-3.02018108		3.166748397		-2.320119144
F		-1.386819829		-1.674480593		-1.729273312
F		-2.514181954		1.449562875		0.059603264
F		-3.249717308		-1.301395494		0.601330422
F		0.619718948		-0.514100374		-3.644635706
F		-0.327857972		1.894403449		-2.339469063
F		-2.452380893		0.481673213		-2.300542911
F		-0.298247053		0.143899613		-0.400067034
