12
-186.35103317
Al		-1.700777129		2.559464317		-1.230322934
Al		-0.53127859		0.000412152		-2.347303064
Al		-2.200845126		-0.339286316		-0.515273161
F		-0.758585152		3.687319003		-0.162555037
F		-3.01752689		3.175260318		-2.316122019
F		-1.37831266		-1.674942989		-1.72160629
F		-2.524708888		1.44965049		0.053938253
F		-3.247546106		-1.302900162		0.6022863
F		0.621163226		-0.515752948		-3.642882152
F		-0.334561361		1.895269006		-2.349329694
F		-2.454620669		0.475161455		-2.303791464
F		-0.302161843		0.157188416		-0.40117062
