12
-186.35103317
Al		-1.702146529		2.560492637		-1.231380214
Al		-0.53047079		-0.000448368		-2.346040144
Al		-2.199366526		-0.340010356		-0.514746281
F		-0.770111872		3.703281923		-0.170099677
F		-3.02074409		3.164942838		-2.320967019
F		-1.38862438		-1.674382509		-1.73089965
F		-2.511948968		1.44954429		0.060804933
F		-3.250177866		-1.301076322		0.60112766
F		0.619412586		-0.513749828		-3.645007672
F		-0.326436041		1.894219846		-2.337377414
F		-2.451905789		0.483054495		-2.299853824
F		-0.297416643		0.141080776		-0.39983294
