12
-186.35103317
Al		-1.702180764		2.560518345		-1.231406646
Al		-0.530450595		-0.000469881		-2.346008571
Al		-2.199329561		-0.340028457		-0.514733109
F		-0.77040004		3.703680996		-0.170288293
F		-3.02082452		3.164684901		-2.321088144
F		-1.388882173		-1.674368497		-1.731131984
F		-2.51162997		1.449541635		0.0609766
F		-3.25024366		-1.301030726		0.601098694
F		0.61936882		-0.51369975		-3.64506081
F		-0.326232908		1.894193617		-2.337078607
F		-2.451837917		0.483251821		-2.299755383
F		-0.297298013		0.140678085		-0.399799498
