12
-186.35103317
Al		-1.702214999		2.560544053		-1.231433078
Al		-0.5304304		-0.000491394		-2.345976998
Al		-2.199292596		-0.340046558		-0.514719937
F		-0.770688208		3.704080069		-0.170476909
F		-3.02090495		3.164426964		-2.321209269
F		-1.389139966		-1.674354485		-1.731364318
F		-2.511310972		1.44953898		0.061148267
F		-3.250309454		-1.30098513		0.601069728
F		0.619325054		-0.513649672		-3.645113948
F		-0.326029775		1.894167388		-2.3367798
F		-2.451770045		0.483449147		-2.299656942
F		-0.297179383		0.140275394		-0.399766056
