12
-186.35103317
Al		-1.702249234		2.560569761		-1.23145951
Al		-0.530410205		-0.000512907		-2.345945425
Al		-2.199255631		-0.340064659		-0.514706765
F		-0.770976376		3.704479142		-0.170665525
F		-3.02098538		3.164169027		-2.321330394
F		-1.389397759		-1.674340473		-1.731596652
F		-2.510991974		1.449536325		0.061319934
F		-3.250375248		-1.300939534		0.601040762
F		0.619281288		-0.513599594		-3.645167086
F		-0.325826642		1.894141159		-2.336480993
F		-2.451702173		0.483646473		-2.299558501
F		-0.297060753		0.139872703		-0.399732614
