12
-186.35103317
Al		-1.702283469		2.560595469		-1.231485942
Al		-0.53039001		-0.00053442		-2.345913852
Al		-2.199218666		-0.34008276		-0.514693593
F		-0.771264544		3.704878215		-0.170854141
F		-3.02106581		3.16391109		-2.321451519
F		-1.389655552		-1.674326461		-1.731828986
F		-2.510672976		1.44953367		0.061491601
F		-3.250441042		-1.300893938		0.601011796
F		0.619237522		-0.513549516		-3.645220224
F		-0.325623509		1.89411493		-2.336182186
F		-2.451634301		0.483843799		-2.29946006
F		-0.296942123		0.139470012		-0.399699172
