12
-186.35103317
Al		-1.702420409		2.560698301		-1.23159167
Al		-0.53030923		-0.000620472		-2.34578756
Al		-2.199070806		-0.340155164		-0.514640905
F		-0.772417216		3.706474507		-0.171608605
F		-3.02138753		3.162879342		-2.321936019
F		-1.390686724		-1.674270413		-1.732758322
F		-2.509396984		1.44952305		0.062178269
F		-3.250704218		-1.300711554		0.600895932
F		0.619062458		-0.513349204		-3.645432776
F		-0.324810977		1.894010014		-2.334986958
F		-2.451362813		0.484633103		-2.299066296
F		-0.296467603		0.137859248		-0.399565404
