12
-186.35103317
Al		-1.702488879		2.560749717		-1.231644534
Al		-0.53026884		-0.000663498		-2.345724414
Al		-2.198996876		-0.340191366		-0.514614561
F		-0.772993552		3.707272653		-0.171985837
F		-3.02154839		3.162363468		-2.322178269
F		-1.39120231		-1.674242389		-1.73322299
F		-2.508758988		1.44951774		0.062521603
F		-3.250835806		-1.300620362		0.600838
F		0.618974926		-0.513249048		-3.645539052
F		-0.324404711		1.893957556		-2.334389344
F		-2.451227069		0.485027755		-2.298869414
F		-0.296230343		0.137053866		-0.39949852
