12
-186.35103317
Al		-1.702523114		2.560775425		-1.231670966
Al		-0.530248645		-0.000685011		-2.345692841
Al		-2.198959911		-0.340209467		-0.514601389
F		-0.77328172		3.707671726		-0.172174453
F		-3.02162882		3.162105531		-2.322299394
F		-1.391460103		-1.674228377		-1.733455324
F		-2.50843999		1.449515085		0.06269327
F		-3.2509016		-1.300574766		0.600809034
F		0.61893116		-0.51319897		-3.64559219
F		-0.324201578		1.893931327		-2.334090537
F		-2.451159197		0.485225081		-2.298770973
F		-0.296111713		0.136651175		-0.399465078
