12
-186.35103317
Al		-1.702591584		2.560826841		-1.23172383
Al		-0.530208255		-0.000728037		-2.345629695
Al		-2.198885981		-0.340245669		-0.514575045
F		-0.773858056		3.708469872		-0.172551685
F		-3.02178968		3.161589657		-2.322541644
F		-1.391975689		-1.674200353		-1.733919992
F		-2.507801994		1.449509775		0.063036604
F		-3.251033188		-1.300483574		0.600751102
F		0.618843628		-0.513098814		-3.645698466
F		-0.323795312		1.893878869		-2.333492923
F		-2.451023453		0.485619733		-2.298574091
F		-0.295874453		0.135845793		-0.399398194
