12
-186.35103317
Al		-1.702694289		2.560903965		-1.231803126
Al		-0.53014767		-0.000792576		-2.345534976
Al		-2.198775086		-0.340299972		-0.514535529
F		-0.77472256		3.709667091		-0.173117533
F		-3.02203097		3.160815846		-2.322905019
F		-1.392749068		-1.674158317		-1.734616994
F		-2.506845		1.44950181		0.063551605
F		-3.25123057		-1.300346786		0.600664204
F		0.61871233		-0.51294858		-3.64585788
F		-0.323185913		1.893800182		-2.332596502
F		-2.450819837		0.486211711		-2.298278768
F		-0.295518563		0.13463772		-0.399297868
