12
-186.35103317
Al		-1.702762759		2.560955381		-1.23185599
Al		-0.53010728		-0.000835602		-2.34547183
Al		-2.198701156		-0.340336174		-0.514509185
F		-0.775298896		3.710465237		-0.173494765
F		-3.02219183		3.160299972		-2.323147269
F		-1.393264654		-1.674130293		-1.735081662
F		-2.506207004		1.4494965		0.063894939
F		-3.251362158		-1.300255594		0.600606272
F		0.618624798		-0.512848424		-3.645964156
F		-0.322779647		1.893747724		-2.331998888
F		-2.450684093		0.486606363		-2.298081886
F		-0.295281303		0.133832338		-0.399230984
