12
-186.35103317
Al		-1.702796994		2.560981089		-1.231882422
Al		-0.530087085		-0.000857115		-2.345440257
Al		-2.198664191		-0.340354275		-0.514496013
F		-0.775587064		3.71086431		-0.173683381
F		-3.02227226		3.160042035		-2.323268394
F		-1.393522447		-1.674116281		-1.735313996
F		-2.505888006		1.449493845		0.064066606
F		-3.251427952		-1.300209998		0.600577306
F		0.618581032		-0.512798346		-3.646017294
F		-0.322576514		1.893721495		-2.331700081
F		-2.450616221		0.486803689		-2.297983445
F		-0.295162673		0.133429647		-0.399197542
