12
-186.35103317
Al		-1.702865464		2.561032505		-1.231935286
Al		-0.530046695		-0.000900141		-2.345377111
Al		-2.198590261		-0.340390477		-0.514469669
F		-0.7761634		3.711662456		-0.174060613
F		-3.02243312		3.159526161		-2.323510644
F		-1.394038033		-1.674088257		-1.735778664
F		-2.50525001		1.449488535		0.06440994
F		-3.25155954		-1.300118806		0.600519374
F		0.6184935		-0.51269819		-3.64612357
F		-0.322170248		1.893669037		-2.331102467
F		-2.450480477		0.487198341		-2.297786563
F		-0.294925413		0.132624265		-0.399130658
