12
-186.35103317
Al		-1.702933934		2.561083921		-1.23198815
Al		-0.530006305		-0.000943167		-2.345313965
Al		-2.198516331		-0.340426679		-0.514443325
F		-0.776739736		3.712460602		-0.174437845
F		-3.02259398		3.159010287		-2.323752894
F		-1.394553619		-1.674060233		-1.736243332
F		-2.504612014		1.449483225		0.064753274
F		-3.251691128		-1.300027614		0.600461442
F		0.618405968		-0.512598034		-3.646229846
F		-0.321763982		1.893616579		-2.330504853
F		-2.450344733		0.487592993		-2.297589681
F		-0.294688153		0.131818883		-0.399063774
