12
-186.35103317
Al		-1.703242049		2.561315293		-1.232226038
Al		-0.52982455		-0.001136784		-2.345029808
Al		-2.198183646		-0.340589588		-0.514324777
F		-0.779333248		3.716052259		-0.176135389
F		-3.02331785		3.156688854		-2.324843019
F		-1.396873756		-1.673934125		-1.738334338
F		-2.501741032		1.44945933		0.066298277
F		-3.252283274		-1.29961725		0.600200748
F		0.618012074		-0.512147332		-3.646708088
F		-0.319935785		1.893380518		-2.32781559
F		-2.449733885		0.489368927		-2.296703712
F		-0.293620483		0.128194664		-0.398762796
