12
-186.35103317
Al		-1.703413224		2.561443833		-1.232358198
Al		-0.529723575		-0.001244349		-2.344871943
Al		-2.197998821		-0.340680093		-0.514258917
F		-0.780774088		3.718047624		-0.177078469
F		-3.02372		3.155399169		-2.325448644
F		-1.398162721		-1.673864065		-1.739496008
F		-2.500146042		1.449446055		0.067156612
F		-3.252612244		-1.29938927		0.600055918
F		0.617793244		-0.511896942		-3.646973778
F		-0.31892012		1.893249373		-2.326321555
F		-2.449394525		0.490355557		-2.296211507
F		-0.293027333		0.126181209		-0.398595586
