12
-186.35103317
Al		-1.703447459		2.561469541		-1.23238463
Al		-0.52970338		-0.001265862		-2.34484037
Al		-2.197961856		-0.340698194		-0.514245745
F		-0.781062256		3.718446697		-0.177267085
F		-3.02380043		3.155141232		-2.325569769
F		-1.398420514		-1.673850053		-1.739728342
F		-2.499827044		1.4494434		0.067328279
F		-3.252678038		-1.299343674		0.600026952
F		0.617749478		-0.511846864		-3.647026916
F		-0.318716987		1.893223144		-2.326022748
F		-2.449326653		0.490552883		-2.296113066
F		-0.292908703		0.125778518		-0.398562144
