12
-186.35103317
Al		-1.703515929		2.561520957		-1.232437494
Al		-0.52966299		-0.001308888		-2.344777224
Al		-2.197887926		-0.340734396		-0.514219401
F		-0.781638592		3.719244843		-0.177644317
F		-3.02396129		3.154625358		-2.325812019
F		-1.3989361		-1.673822029		-1.74019301
F		-2.499189048		1.44943809		0.067671613
F		-3.252809626		-1.299252482		0.59996902
F		0.617661946		-0.511746708		-3.647133192
F		-0.318310721		1.893170686		-2.325425134
F		-2.449190909		0.490947535		-2.295916184
F		-0.292671443		0.124973136		-0.39849526
