12
-186.35103317
Al		-1.703618634		2.561598081		-1.23251679
Al		-0.529602405		-0.001373427		-2.344682505
Al		-2.197777031		-0.340788699		-0.514179885
F		-0.782503096		3.720442062		-0.178210165
F		-3.02420258		3.153851547		-2.326175394
F		-1.399709479		-1.673779993		-1.740890012
F		-2.498232054		1.449430125		0.068186614
F		-3.253007008		-1.299115694		0.599882122
F		0.617530648		-0.511596474		-3.647292606
F		-0.317701322		1.893091999		-2.324528713
F		-2.448987293		0.491539513		-2.295620861
F		-0.292315553		0.123765063		-0.398394934
