12
-186.35103317
Al		-1.703652869		2.561623789		-1.232543222
Al		-0.52958221		-0.00139494		-2.344650932
Al		-2.197740066		-0.3408068		-0.514166713
F		-0.782791264		3.720841135		-0.178398781
F		-3.02428301		3.15359361		-2.326296519
F		-1.399967272		-1.673765981		-1.741122346
F		-2.497913056		1.44942747		0.068358281
F		-3.253072802		-1.299070098		0.599853156
F		0.617486882		-0.511546396		-3.647345744
F		-0.317498189		1.89306577		-2.324229906
F		-2.448919421		0.491736839		-2.29552242
F		-0.292196923		0.123362372		-0.398361492
