12
-186.35103317
Al		-1.703687104		2.561649497		-1.232569654
Al		-0.529562015		-0.001416453		-2.344619359
Al		-2.197703101		-0.340824901		-0.514153541
F		-0.783079432		3.721240208		-0.178587397
F		-3.02436344		3.153335673		-2.326417644
F		-1.400225065		-1.673751969		-1.74135468
F		-2.497594058		1.449424815		0.068529948
F		-3.253138596		-1.299024502		0.59982419
F		0.617443116		-0.511496318		-3.647398882
F		-0.317295056		1.893039541		-2.323931099
F		-2.448851549		0.491934165		-2.295423979
F		-0.292078293		0.122959681		-0.39832805
