12
-186.35103317
Al		-1.700948304		2.559592857		-1.230455094
Al		-0.531177615		0.000304587		-2.347145199
Al		-2.200660301		-0.339376821		-0.515207301
F		-0.760025992		3.689314368		-0.163498117
F		-3.01792904		3.173970633		-2.316727644
F		-1.379601625		-1.674872929		-1.72276796
F		-2.523113898		1.449637215		0.054796588
F		-3.247875076		-1.302672182		0.60214147
F		0.620944396		-0.515502558		-3.643147842
F		-0.333545696		1.895137861		-2.347835659
F		-2.454281309		0.476148085		-2.303299259
F		-0.301568693		0.155174961		-0.40100341
