12
-186.35103317
Al		-1.703858279		2.561778037		-1.232701814
Al		-0.52946104		-0.001524018		-2.344461494
Al		-2.197518276		-0.340915406		-0.514087681
F		-0.784520272		3.723235573		-0.179530477
F		-3.02476559		3.152045988		-2.327023269
F		-1.40151403		-1.673681909		-1.74251635
F		-2.495999068		1.44941154		0.069388283
F		-3.253467566		-1.298796522		0.59967936
F		0.617224286		-0.511245928		-3.647664572
F		-0.316279391		1.892908396		-2.322437064
F		-2.448512189		0.492920795		-2.294931774
F		-0.291485143		0.120946226		-0.39816084
