12
-186.35103317
Al		-1.703892514		2.561803745		-1.232728246
Al		-0.529440845		-0.001545531		-2.344429921
Al		-2.197481311		-0.340933507		-0.514074509
F		-0.78480844		3.723634646		-0.179719093
F		-3.02484602		3.151788051		-2.327144394
F		-1.401771823		-1.673667897		-1.742748684
F		-2.49568007		1.449408885		0.06955995
F		-3.25353336		-1.298750926		0.599650394
F		0.61718052		-0.51119585		-3.64771771
F		-0.316076258		1.892882167		-2.322138257
F		-2.448444317		0.493118121		-2.294833333
F		-0.291366513		0.120543535		-0.398127398
