12
-186.35103317
Al		-1.703960984		2.561855161		-1.23278111
Al		-0.529400455		-0.001588557		-2.344366775
Al		-2.197407381		-0.340969709		-0.514048165
F		-0.785384776		3.724432792		-0.180096325
F		-3.02500688		3.151272177		-2.327386644
F		-1.402287409		-1.673639873		-1.743213352
F		-2.495042074		1.449403575		0.069903284
F		-3.253664948		-1.298659734		0.599592462
F		0.617092988		-0.511095694		-3.647823986
F		-0.315669992		1.892829709		-2.321540643
F		-2.448308573		0.493512773		-2.294636451
F		-0.291129253		0.119738153		-0.398060514
