12
-186.35103317
Al		-1.704029454		2.561906577		-1.232833974
Al		-0.529360065		-0.001631583		-2.344303629
Al		-2.197333451		-0.341005911		-0.514021821
F		-0.785961112		3.725230938		-0.180473557
F		-3.02516774		3.150756303		-2.327628894
F		-1.402802995		-1.673611849		-1.74367802
F		-2.494404078		1.449398265		0.070246618
F		-3.253796536		-1.298568542		0.59953453
F		0.617005456		-0.510995538		-3.647930262
F		-0.315263726		1.892777251		-2.320943029
F		-2.448172829		0.493907425		-2.294439569
F		-0.290891993		0.118932771		-0.39799363
