12
Properties=species:S:1:pos:R:3:forces:R:3 energy=-185.72609879 pbc="F F F"
Al    -1.6966302610000001    2.35855682    -1.183453891    3.715268    -0.746478    -3.561154
Al    -0.504889755    0.088042806    -2.372589574    0.006809    1.074648    -0.07512
Al    -2.108284176    -0.631072518    -0.656403837    0.516604    -0.815697    -0.636738
F    -0.561312341    3.964797036    0.13912394300000003    -0.068407    0.103375    0.205333
F    -3.404791047    3.344909193    -2.564784792    -0.223581    0.046099    0.059233
F    -1.44359668    -1.511388027    -1.611090361    -0.188615    -0.017087    0.232975
F    -2.612026162    1.587718483    0.187476562    -0.844959    -0.528155    1.27751
F    -3.2114383629999996    -1.272488632    0.563781853    -0.02092    0.166469    0.036438
F    0.563856598    -0.472957541    -3.576484304    0.019713    -0.065755    -0.012952
F    -0.10430012499999997    1.5552943140000002    -2.5438522310000002    -2.328592    1.000098    1.865181
F    -2.454287957    0.471790351    -2.295091228    -0.301177    -0.124111    0.270116
F    -0.315649568    0.161265039    -0.397856808    -0.282143    -0.093406    0.339177
