12
Properties=species:S:1:pos:R:3:forces:R:3 energy=-184.99229799 pbc="F F F"
Al    1.31056148    -0.007819483000000002    2.621909073    0.078488    0.169545    -0.225595
Al    1.4855944    1.1826851999999999    0.3263924    0.627121    0.589147    -0.113491
Al    -0.225478762    0.83739405    -2.148695773    0.212413    0.103741    0.172934
F    -1.625503172    -0.323329653    -2.2362560059999996    0.038037    -0.002186    0.076779
F    1.9268302529999999    -0.306505553    0.690420452    1.42873    -2.860431    1.014732
F    0.042520739    1.75764549    -3.6720705330000003    0.033095    0.031269    -0.006383
F    -0.88743581    2.2814789529999997    -1.011307249    -2.934632    1.445722    -0.742198
F    2.7180979570000003    2.5820245120000003    -0.42939664299999997    2.004284    1.88292    -0.362721
F    1.345745239    -0.323045995    -2.191787054    0.269133    -2.290789    -2.435751
F    0.422364117    1.4481278290000001    1.485703639    -1.775036    0.876069    2.70828
F    2.635508569    0.625512276    3.7310546369999997    0.033348    0.031148    -0.005637
F    -0.032176325000000006    -1.2410183520000002    2.802621871    -0.01498    0.023846    -0.080951
