      12
SCF Done            -184.99229799
Al            1.283053480         0.051013517         2.440071073
Al            1.343890400         1.252286200        -0.095227600
Al           -0.316338762         0.836706050        -2.319059773
F            -1.667988172        -0.369947653        -2.213776006
F             2.177408253        -0.580587553         0.859443452
F             0.052795739         1.823422490        -3.797762533
F            -0.597687810         2.044194953        -0.849369249
F             2.745165957         2.568711512        -0.348820643
F             1.271134239        -0.135386995        -1.837251054
F             0.308584117         1.598991829         1.847325639
F             2.546767569         0.598273276         3.623272637
F             0.019683675        -1.199008352         2.808035871
