12
Properties=species:S:1:pos:R:3:forces:R:3 energy=-186.18603384 pbc="F F F"
Al    -0.359922238    1.02423336    -1.789035336    -0.050177    0.008181    0.997523
Al    -0.392917114    1.082545653    1.203988836    1.322598    0.239699    -2.419157
Al    -2.897526719    -0.210653311    -1.851631942    -0.468361    -0.103238    -0.105749
F    -3.546989261    0.342184408    -3.623682508    -0.119341    -0.032014    -0.32621
F    -1.792083557    -0.31118530099999997    -1.862405845    0.902185    0.852344    0.056092
F    -1.525627687    2.4180856029999998    -1.876189583    1.173107    -0.401239    0.080001
F    -2.022921525    0.750559139    0.468908624    0.17538    0.042193    0.224939
F    0.498736327    1.292213043    -0.26687391099999996    -1.656677    -0.341451    0.869751
F    -0.312427175    2.697223397    1.972962947    -0.105094    -0.486101    -0.11406
F    0.350099115    -0.32621205799999997    2.044248645    -0.295485    0.394858    -0.130862
F    -4.310341692000001    0.27224127    -0.560269565    -0.272016    -0.053001    0.303417
F    0.688604427    1.3099771370000002    -3.1964428290000004    -0.606117    -0.12023    0.564316
