12
Properties=species:S:1:pos:R:3:forces:R:3 energy=-185.75626376 pbc="F F F"
Al    0.685007672    -2.358042511    -2.010727261    0.111239    -0.206087    -0.415597
Al    2.31646343    -0.606218656    -0.7088863240000001    0.109251    0.181148    0.294495
Al    -0.05794790600000005    0.245680203    -1.6911169830000001    -0.143901    0.283881    0.216572
F    3.821748588    -0.24679281600000003    0.138323477    0.037612    0.014425    0.012606
F    0.26082382600000004    -4.035129093    -2.570027036    -0.043907    -0.170368    -0.03974
F    2.4377780380000003    -1.714115976    -2.331590989    -0.032103    -0.084214    -0.132428
F    1.762377495    0.7276388389999999    -2.07680592    0.149383    0.201292    -0.190858
F    -1.294796522    1.588861931    -1.983191011    -0.026649    0.043533    -0.014452
F    -0.869473186    -1.443433452    -1.088559369    -0.216733    -0.025422    0.164452
F    0.216339726    -0.917133309    -3.252684181    0.056431    -0.114763    -0.110617
F    0.676564596    0.201339398    0.087318898    0.001932    -0.015514    -0.04258
F    1.351965134    -2.24041541    -0.167466873    -0.002557    -0.107911    0.258146
