12
Properties=species:S:1:pos:R:3:forces:R:3 energy=-186.28518421 pbc="F F F"
Al    0.008846142999999994    1.6280937960000001    1.8295537210000001    0.301228    0.196879    -0.500038
Al    2.628112496    2.835606825    1.965938575    0.251911    0.280533    0.141011
Al    1.353017858    2.8546401809999997    -0.756337853    0.047753    0.334227    -0.369834
F    0.9319677520000001    2.964660519    2.9778738319999998    0.081173    -0.112141    0.234324
F    -1.642362747    2.3775523429999996    2.487578695    -0.246207    -0.242566    0.287872
F    -0.89515666    0.293616182    2.87990546    -0.271777    0.138284    0.134645
F    2.149152769    1.034289585    1.997750234    0.111928    0.056383    0.043749
F    2.650055142    1.622564072    -0.310664254    -0.218188    -0.354537    0.077409
F    1.1205267140000001    2.943345552    -2.577238404    -0.036389    -0.06329    -0.080336
F    1.724276268    3.9617701870000004    0.808604865    -0.131094    -0.003741    0.107061
F    4.329642766    3.124067211    2.597344368    0.041794    -0.035764    0.08366
F    0.0532684    1.647256368    -0.046430895    0.067867    -0.194268    -0.159522
