12
Properties=species:S:1:pos:R:3:forces:R:3 energy=-186.47206681 pbc="F F F"
Al    0.336064793    -0.5217009579999999    1.817517339    -0.481242    3.070283    3.032716
Al    2.037922165    -1.8232474719999998    -0.849849897    -1.81695    0.76985    1.217908
Al    -1.228654981    -1.768305158    -0.693918343    1.374071    0.810829    1.682778
F    3.571678507    -0.39955099299999997    -1.14792698    0.657293    0.660596    -0.351072
F    -1.7811270540000002    -0.6209946879999999    -1.8543183970000001    -0.54623    0.645139    -0.526403
F    2.754768795    -3.608094094    -0.48102504300000004    0.32418    -1.19583    -0.031306
F    -1.2214953659999999    -3.6365302020000003    -1.07991652    -0.271599    -1.203478    -0.1181
F    1.862939197    -1.3778849930000001    1.397777002    1.368211    -0.891111    -1.574926
F    1.487922164    -1.502936482    -1.387197065    -0.035248    -0.115738    0.252154
F    0.128590952    -1.152368963    3.376323089    0.355706    0.87862    -2.519122
F    0.418028171    1.067314899    1.218952536    -0.088959    -2.509697    0.831884
F    -0.997862668    -1.543126383    0.5015746139999999    -0.839233    -0.91946    -1.896509
