      12
SCF Done            -170.42530381
Al            0.337369795        -0.521682878         1.817708317
Al            2.311777163        -1.771283454        -0.494047890
Al           -0.863466982        -1.812062140        -0.956623336
F             3.494404511        -0.476892993        -1.122477003
F            -1.849849051        -0.545527689        -1.901037421
F             2.745315787        -3.596900077        -0.492212992
F            -1.233462373        -3.647998185        -1.071848469
F             1.940376196        -1.441140932         1.169340000
F             0.830920164        -1.511374482        -1.482910065
F             0.118620951        -1.152496841         3.374870081
F             0.404480179         1.067139966         1.216979472
F            -0.990424669        -1.478780321         0.742375612
