      12
SCF Done            -186.47206681
Al            0.337369793        -0.521682958         1.817708339
Al            2.311777165        -1.771283472        -0.494047897
Al           -0.863466981        -1.812062158        -0.956623343
F             3.494404507        -0.476892993        -1.122476980
F            -1.849849054        -0.545527688        -1.901037397
F             2.745315795        -3.596900094        -0.492213043
F            -1.233462366        -3.647998202        -1.071848520
F             1.940376197        -1.441140993         1.169340002
F             0.830920164        -1.511374482        -1.482910065
F             0.118620952        -1.152496963         3.374870089
F             0.404480171         1.067139899         1.216979536
F            -0.990424668        -1.478780383         0.742375614
