12
Properties=species:S:1:pos:R:3:forces:R:3 energy=-186.21190792 pbc="F F F"
Al    -1.724820761    2.57731302    -1.248482691    -0.348631    -0.115273    -0.339085
Al    -0.505797855    -0.043458894    -2.354168574    0.057585    -0.11293    -0.05499
Al    -2.153415476    -0.316246618    -0.513613437    -0.026988    -0.130135    0.037814
F    -0.7180291409999999    4.014134736    -0.558417857    0.211175    0.617607    0.306965
F    -3.5061342470000003    2.907710093    -1.925699092    -0.113312    -0.165425    -0.133938
F    -1.54752458    -1.663113627    -1.894514761    -0.145264    -0.282447    -0.184756
F    -2.0558163620000003    1.458863583    0.276230762    0.022547    -0.011025    0.255259
F    -3.571768563    -1.1508504320000001    0.345371053    -0.052269    -0.030169    0.022295
F    0.874333198    -0.600153741    -3.448825104    0.021544    -0.015151    -0.0587
F    -0.318648825    1.890653614    -2.377387131    0.253943    0.036058    0.00135
F    -2.435253757    0.606828351    -2.204691528    -0.132721    0.300014    -0.065325
F    -0.17625036800000002    -0.11426546100000001    -0.42545700799999997    0.252392    -0.091123    0.213111
