      12
SCF Done            -186.21190792
Al           -1.724604761         2.577357020        -1.248719691
Al           -0.517222855        -0.014560894        -2.325327574
Al           -2.175117476        -0.351884618        -0.506105437
F            -0.959150141         3.965073736        -0.293831857
F            -3.073506247         2.995736093        -2.400425092
F            -1.557736580        -1.665190627        -1.883310761
F            -2.302686362         1.447802583         0.173417762
F            -3.293338563        -1.271165432         0.582126053
F             0.590702198        -0.480898741        -3.679866104
F            -0.193180825         1.877013614        -2.141360131
F            -2.407381757         0.612500351        -2.235276528
F            -0.219595368        -0.123084461        -0.377895008
