12
-187.24475565
Al		0.431964595		-0.598257878		1.752408917
Al		2.307132963		-1.751867254		-0.45342649
Al		-0.914676982		-1.86811134		-1.067475736
F		3.335052511		-0.341924393		-0.986160603
F		-1.929839051		-0.721977089		-2.047510221
F		2.542280787		-3.563623277		-0.347132592
F		-1.371461373		-3.616320785		-1.263443869
F		2.003287796		-1.397812732		1.3098166
F		0.820504964		-1.508638082		-1.490920665
F		0.306642351		-1.169822241		3.472074281
F		0.538060579		1.136848966		1.217788072
F		-0.830311269		-1.465799921		0.730071812
