12
-187.24475565
Al		0.418241693		-0.598434158		1.750409739
Al		2.314361365		-1.758013372		-0.464430997
Al		-0.911044981		-1.861825758		-1.054889143
F		3.358570207		-0.367658793		-1.00726368
F		-1.913973354		-0.695736888		-2.020669597
F		2.574706895		-3.563409694		-0.371254643
F		-1.347269066		-3.615807202		-1.23107372
F		1.985526497		-1.400673893		1.293317402
F		0.822389164		-1.508613882		-1.490646165
F		0.273687252		-1.170245563		3.467273289
F		0.516098071		1.136566799		1.214588636
F		-0.852107368		-1.463446883		0.740808314
