12
-187.24475565
Al		0.294735593		-0.600019958		1.732416939
Al		2.379416965		-1.813328272		-0.563471497
Al		-0.878356981		-1.805255358		-0.941609743
F		3.570229507		-0.599268393		-1.19719158
F		-1.771182054		-0.459575088		-1.779104197
F		2.866541795		-3.561487294		-0.588352643
F		-1.129538366		-3.611184802		-0.93974192
F		1.825674797		-1.426423793		1.144824602
F		0.839346964		-1.508396082		-1.488175665
F		-0.022908648		-1.174054363		3.424064289
F		0.318435571		1.134027899		1.185793136
F		-1.048272268		-1.442268983		0.837436814
