12
-187.24475565
Al		0.226121093		-0.600900958		1.722420939
Al		2.415558965		-1.844058772		-0.618493997
Al		-0.860196981		-1.773827358		-0.878676743
F		3.687818007		-0.727940393		-1.30270708
F		-1.691853554		-0.328374088		-1.644901197
F		3.028672295		-3.560419294		-0.708962643
F		-1.008576866		-3.608616802		-0.77789092
F		1.736868297		-1.440729293		1.062328602
F		0.848767964		-1.508275082		-1.486803165
F		-0.187684148		-1.176170363		3.400059289
F		0.208623071		1.132617399		1.169795636
F		-1.157252768		-1.430503483		0.891119314
