12
-187.24475565
Al		0.294735595		-0.600019878		1.732416917
Al		2.379416963		-1.813328254		-0.56347149
Al		-0.878356982		-1.80525534		-0.941609736
F		3.570229511		-0.599268393		-1.197191603
F		-1.771182051		-0.459575089		-1.779104221
F		2.866541787		-3.561487277		-0.588352592
F		-1.129538373		-3.611184785		-0.939741869
F		1.825674796		-1.426423732		1.1448246
F		0.839346964		-1.508396082		-1.488175665
F		-0.022908649		-1.174054241		3.424064281
F		0.318435579		1.134027966		1.185793072
F		-1.048272269		-1.442268921		0.837436812
