12
-187.24475565
Al		0.486856195		-0.597553078		1.760405717
Al		2.278219363		-1.727282854		-0.40940849
Al		-0.929204982		-1.89325374		-1.117822136
F		3.240981711		-0.238986793		-0.901748203
F		-1.993301851		-0.826937889		-2.154872621
F		2.412576387		-3.564477677		-0.250644592
F		-1.468230573		-3.618375185		-1.392924669
F		2.074332996		-1.386368332		1.3758134
F		0.812968164		-1.508734882		-1.492018665
F		0.438462751		-1.168129441		3.491278281
F		0.625910579		1.137977366		1.230586072
F		-0.743126869		-1.475212321		0.687125812
12
-187.24475565
Al		0.459410395		-0.597905478		1.756407317
Al		2.292676163		-1.739575054		-0.43141749
Al		-0.921940982		-1.88068254		-1.092648936
F		3.288017111		-0.290455593		-0.943954403
F		-1.961570451		-0.774457489		-2.101191421
F		2.477428587		-3.564050477		-0.298888592
F		-1.419845973		-3.617347985		-1.328184269
F		2.038810396		-1.392090532		1.342815
F		0.816736564		-1.508686482		-1.491469665
F		0.372552551		-1.168975841		3.481676281
F		0.581985579		1.137413166		1.224187072
F		-0.786719069		-1.470506121		0.708598812
12
-187.24475565
Al		0.431964595		-0.598257878		1.752408917
Al		2.307132963		-1.751867254		-0.45342649
Al		-0.914676982		-1.86811134		-1.067475736
F		3.335052511		-0.341924393		-0.986160603
F		-1.929839051		-0.721977089		-2.047510221
F		2.542280787		-3.563623277		-0.347132592
F		-1.371461373		-3.616320785		-1.263443869
F		2.003287796		-1.397812732		1.3098166
F		0.820504964		-1.508638082		-1.490920665
F		0.306642351		-1.169822241		3.472074281
F		0.538060579		1.136848966		1.217788072
F		-0.830311269		-1.465799921		0.730071812
12
-187.24475565
Al		0.404518795		-0.598610278		1.748410517
Al		2.321589763		-1.764159454		-0.47543549
Al		-0.907412982		-1.85554014		-1.042302536
F		3.382087911		-0.393393193		-1.028366803
F		-1.898107651		-0.669496689		-1.993829021
F		2.607132987		-3.563196077		-0.395376592
F		-1.323076773		-3.615293585		-1.198703469
F		1.967765196		-1.403534932		1.2768182
F		0.824273364		-1.508589682		-1.490371665
F		0.240732151		-1.170668641		3.462472281
F		0.494135579		1.136284766		1.211389072
F		-0.873903469		-1.461093721		0.751544812
12
-187.24475565
Al		0.377072995		-0.598962678		1.744412117
Al		2.336046563		-1.776451654		-0.49744449
Al		-0.900148982		-1.84296894		-1.017129336
F		3.429123311		-0.444861993		-1.070573003
F		-1.866376251		-0.617016289		-1.940147821
F		2.671985187		-3.562768877		-0.443620592
F		-1.274692173		-3.614266385		-1.133963069
F		1.932242596		-1.409257132		1.2438198
F		0.828041764		-1.508541282		-1.489822665
F		0.174821951		-1.171515041		3.452870281
F		0.450210579		1.135720566		1.204990072
F		-0.917495669		-1.456387521		0.773017812
12
-187.24475565
Al		0.349627195		-0.599315078		1.740413717
Al		2.350503363		-1.788743854		-0.51945349
Al		-0.892884982		-1.83039774		-0.991956136
F		3.476158711		-0.496330793		-1.112779203
F		-1.834644851		-0.564535889		-1.886466621
F		2.736837387		-3.562341677		-0.491864592
F		-1.226307573		-3.613239185		-1.069222669
F		1.896719996		-1.414979332		1.2108214
F		0.831810164		-1.508492882		-1.489273665
F		0.108911751		-1.172361441		3.443268281
F		0.406285579		1.135156366		1.198591072
F		-0.961087869		-1.451681321		0.794490812
12
-187.24475565
Al		0.322181395		-0.599667478		1.736415317
Al		2.364960163		-1.801036054		-0.54146249
Al		-0.885620982		-1.81782654		-0.966782936
F		3.523194111		-0.547799593		-1.154985403
F		-1.802913451		-0.512055489		-1.832785421
F		2.801689587		-3.561914477		-0.540108592
F		-1.177922973		-3.612211985		-1.004482269
F		1.861197396		-1.420701532		1.177823
F		0.835578564		-1.508444482		-1.488724665
F		0.043001551		-1.173207841		3.433666281
F		0.362360579		1.134592166		1.192192072
F		-1.004680069		-1.446975121		0.815963812
12
-187.24475565
Al		0.294735595		-0.600019878		1.732416917
Al		2.379416963		-1.813328254		-0.56347149
Al		-0.878356982		-1.80525534		-0.941609736
F		3.570229511		-0.599268393		-1.197191603
F		-1.771182051		-0.459575089		-1.779104221
F		2.866541787		-3.561487277		-0.588352592
F		-1.129538373		-3.611184785		-0.939741869
F		1.825674796		-1.426423732		1.1448246
F		0.839346964		-1.508396082		-1.488175665
F		-0.022908649		-1.174054241		3.424064281
F		0.318435579		1.134027966		1.185793072
F		-1.048272269		-1.442268921		0.837436812
12
-187.24475565
Al		0.267289795		-0.600372278		1.728418517
Al		2.393873763		-1.825620454		-0.58548049
Al		-0.871092982		-1.79268414		-0.916436536
F		3.617264911		-0.650737193		-1.239397803
F		-1.739450651		-0.407094689		-1.725423021
F		2.931393987		-3.561060077		-0.636596592
F		-1.081153773		-3.610157585		-0.875001469
F		1.790152196		-1.432145932		1.1118262
F		0.843115364		-1.508347682		-1.487626665
F		-0.088818849		-1.174900641		3.414462281
F		0.274510579		1.133463766		1.179394072
F		-1.091864469		-1.437562721		0.858909812
12
-187.24475565
Al		0.239843995		-0.600724678		1.724420117
Al		2.408330563		-1.837912654		-0.60748949
Al		-0.863828982		-1.78011294		-0.891263336
F		3.664300311		-0.702205993		-1.281604003
F		-1.707719251		-0.354614289		-1.671741821
F		2.996246187		-3.560632877		-0.684840592
F		-1.032769173		-3.609130385		-0.810261069
F		1.754629596		-1.437868132		1.0788278
F		0.846883764		-1.508299282		-1.487077665
F		-0.154729049		-1.175747041		3.404860281
F		0.230585579		1.132899566		1.172995072
F		-1.135456669		-1.432856521		0.880382812
