      12
SCF Done            -186.20965830
Al           -0.025245457         1.592365996         2.199149121
Al            2.539634896         2.532859825         1.673441175
Al            1.277488458         2.770590981        -0.674685253
F             1.061272152         3.082062519         2.758781232
F            -1.454871547         2.754015543         2.211237095
F            -0.581552660        -0.038819018         2.782553460
F             1.840408569         0.790696785         1.994765434
F             2.891666942         1.890892272        -0.103911654
F             1.135351714         3.016900552        -2.463044604
F             1.737866868         4.069831787         0.613100465
F             3.981177766         3.180234411         2.611634368
F             0.046111000         1.726802568         0.220433905
