12
Properties=species:S:1:pos:R:3:forces:R:3 energy=-187.30908265 pbc="F F F"
Al    1.2842549799999998    0.061148017    2.4199845730000002    0.003648    0.006129    -0.006622
Al    1.4049814    1.3096782    -0.1062831    0.244426    0.229626    -0.044235
Al    -0.302547762    0.84065655    -2.301686273    0.007424    0.004272    0.004616
F    -1.649902172    -0.355552653    -2.211321006    0.005277    -0.001205    0.012642
F    2.268164253    -0.7753595529999999    0.9475034520000001    0.282712    -0.576439    0.253409
F    0.050005739    1.81491549    -3.784270533    0.008077    0.007201    -0.000609
F    -0.8013848100000001    2.132864953    -0.916990749    -0.600867    0.277551    -0.19583
F    2.8616504569999996    2.6781430119999996    -0.369901643    0.363259    0.341263    -0.06574
F    1.2730447390000001    -0.28651499500000005    -2.013559054    0.021223    -0.447985    -0.524675
F    0.19373261699999997    1.644016329    2.044072139    -0.339378    0.149094    0.582253
F    2.5357495689999996    0.5938087759999999    3.6122796370000003    0.007537    0.007467    -0.002216
F    0.034140175    -1.1828308520000002    2.7996913709999998    -0.003339    0.003026    -0.012992
