      12
SCF Done            -187.30908265
Al            1.282701980         0.049290017         2.443208573
Al            1.287968400         1.199750200        -0.085107100
Al           -0.318637762         0.835939550        -2.321717273
F            -1.670128172        -0.369906653        -2.217914006
F             2.082213253        -0.390194553         0.773183452
F             0.050117739         1.821121490        -3.797751533
F            -0.398822810         1.951193953        -0.781870749
F             2.614091457         2.445574012        -0.325099643
F             1.264176739         0.011660005        -1.660952054
F             0.419211617         1.549337329         1.652265139
F             2.544389569         0.595824776         3.624176637
F             0.020411175        -1.200375852         2.812429371
