12
Properties=species:S:1:pos:R:3:forces:R:3 energy=-183.87120643 pbc="F F F"
Al    -1.954437261    2.7528586199999996    -1.0257180909999999    -5.063885    -6.817556    7.521094
Al    -0.448166555    0.303089006    -2.355901974    -1.219062    -1.936419    1.087088
Al    -2.086253576    -0.513428718    -0.622009837    -0.404777    2.259102    0.202688
F    -0.978824941    3.444049836    -0.320989857    0.49662    0.517173    -0.03575
F    -2.768848647    3.012015593    -2.018215192    -0.061107    0.305166    -0.630842
F    -1.46216508    -1.849800027    -1.666551161    0.460011    0.185309    -0.412128
F    -2.377278562    2.023194283    -0.205195438    3.111617    4.882291    -5.213817
F    -3.324668563    -1.400392632    0.680715053    -0.008383    -0.086672    0.041018
F    0.652456998    -0.520202941    -3.6796259040000003    0.035012    0.458009    0.014749
F    -0.278069525    1.612178114    -2.413246631    1.588307    0.375827    -1.293463
F    -2.4519135569999997    0.48525775099999996    -2.2926742279999996    0.427212    -0.135007    -0.695954
F    -0.340868968    0.156332639    -0.431825608    0.638435    -0.007222    -0.584684
