      12
SCF Done            -166.92856382
Al           -0.122292213         1.609725172         2.270205220
Al            2.491361296         2.548691425         1.734707575
Al            1.330167284         2.595989384        -0.591929254
F             0.962752578         3.135044536         2.744386863
F            -1.522938283         2.803463922         2.068681986
F            -0.404855071        -0.143781066         2.728251830
F             1.747430553         0.818177593         1.924286265
F             3.079101745         1.981623453        -0.091762816
F             1.108201809         3.049277733        -2.325144612
F             1.800922094         4.012527387         0.592092467
F             4.059671368         3.126864377         2.411948780
F            -0.062460991         1.857929410         0.316514293
