      12
SCF Done            -185.94968706
Al           -0.122292257         1.609725196         2.270205121
Al            2.491361296         2.548691425         1.734707575
Al            1.330167258         2.595989381        -0.591929253
F             0.962752552         3.135044519         2.744386832
F            -1.522938347         2.803463943         2.068681895
F            -0.404855060        -0.143781018         2.728251860
F             1.747430569         0.818177585         1.924286234
F             3.079101742         1.981623472        -0.091762854
F             1.108201714         3.049277752        -2.325144604
F             1.800922068         4.012527387         0.592092065
F             4.059671366         3.126864411         2.411948768
F            -0.062461000         1.857929368         0.316514305
