12
Properties=species:S:1:pos:R:3:forces:R:3 energy=-181.82622672 pbc="F F F"
Al    -0.633151238    0.9743848599999999    -1.858482636    -8.017581    -1.773962    -2.160809
Al    -0.47302661399999996    1.068614653    1.267733136    -1.605821    -0.364036    -0.890363
Al    -3.673096119    0.31508178900000006    -1.979843442    -7.615231    -1.759447    -5.958979
F    -3.4212245610000003    0.353769408    -2.8054695080000003    1.680074    0.55224    9.917096
F    -1.236584157    -0.48573580099999997    -1.835732145    3.191335    2.030556    0.140074
F    -1.7856735869999998    2.054955403    -1.884189583    3.743742    -0.525482    0.188824
F    -1.998919325    0.7236407389999999    0.470702424    1.32765    0.300937    0.734438
F    0.673203827    1.289291743    -0.15027761099999998    1.659673    0.423704    3.409039
F    -0.298302175    2.755833597    1.994348747    0.211107    0.634616    0.10343
F    0.376881615    -0.368309758    2.053931345    0.453428    -0.486636    0.12481
F    -3.793420892    0.30320417    -1.239142565    3.649661    0.703422    -4.474383
F    0.856336127    1.267952237    -3.344336529    1.321963    0.264089    -1.133179
