12
Properties=species:S:1:pos:R:3:forces:R:3 energy=-186.06061875 pbc="F F F"
Al    -0.345278138    1.11253566    -1.754699836    -0.402105    0.746134    0.67914
Al    -0.393615814    1.048201853    1.3127207360000002    -0.13871    -0.1711    -0.155378
Al    -2.900686619    0.435721989    -1.823096742    -0.091133    -0.253003    -0.056279
F    -3.3806652610000003    0.39383290800000004    -3.585505108    0.035022    -0.056162    -0.009376
F    -1.266295957    -0.581943801    -1.7970365449999999    0.141241    -0.162934    -0.337336
F    -1.9354062870000002    2.1393271030000003    -1.8452520829999999    -0.001222    0.170748    0.30026
F    -1.795304725    0.535860239    0.231045324    -0.161576    -0.55303    0.102383
F    0.673642827    1.728268943    -0.315045511    0.084646    0.649094    -0.012554
F    -0.38386837500000004    2.7425634970000003    2.134582447    0.512707    0.514452    -0.265416
F    -0.050418085    -0.544115958    2.192472645    -0.326072    -0.466479    0.210544
F    -4.109850592    0.25796337    -0.477062765    -0.050612    0.062992    0.019444
F    0.262360727    0.9387830369999999    -3.642429629    0.397813    -0.480712    -0.475433
