12
Properties=species:S:1:pos:R:3:forces:R:3 energy=-184.18952411 pbc="F F F"
Al    -0.484249638    1.18828706    -1.660319336    0.129056    1.425385    -0.105223
Al    -0.759353814    0.894253853    1.379204636    -0.015258    -0.199744    0.073118
Al    -2.855518219    -0.020018110999999998    -1.707277842    2.886322    -4.961094    1.509126
F    -3.317421361    0.888724908    -3.494707108    -1.449775    2.908657    -2.825334
F    -1.0108986569999998    -0.813022001    -2.003223045    1.124189    -0.609539    0.329746
F    -2.2589936870000003    1.764008103    -2.140675983    -1.043988    -0.048428    -0.411033
F    -2.1561613250000002    0.9486463390000001    0.06534742400000004    -0.069914    0.395464    -0.007758
F    0.410222827    1.310006343    -0.07787281100000001    0.241768    -0.359948    0.274029
F    -0.07400807499999995    2.6424731969999997    1.798630347    -0.133432    0.017096    -0.029225
F    0.664658615    -0.23260275800000002    2.036379445    0.072061    0.042178    0.009481
F    -4.292134592    0.57376967    -0.48589586500000004    -2.090851    1.685459    1.541936
F    0.596537027    1.164796837    -3.1319208290000002    0.349822    -0.295484    -0.358864
