12
Properties=species:S:1:pos:R:3:forces:R:3 energy=-183.37431201 pbc="F F F"
Al    -0.10213982800000002    -2.237081411    -1.7971684609999998    -1.906054    0.999163    5.395639
Al    2.04039333    -0.898512056    -0.652781224    -3.794992    -0.91977    4.300721
Al    -0.18177600600000002    0.520589103    -1.512997683    -1.250291    -1.832546    5.368694
F    3.630002288    -0.175505416    -0.043709622999999996    0.333529    0.079902    -0.279925
F    -0.158437974    -4.031744692999999    -2.240543236    0.120311    -0.136712    -0.403519
F    2.158975838    -1.842705676    -2.372723789    1.661424    -0.392645    -2.17815
F    1.593311095    0.7017543390000001    -2.33763042    1.310611    1.122226    -2.163734
F    -1.4797034219999998    1.6516107309999999    -2.1888195109999997    0.046287    0.182941    -0.400476
F    -0.960894286    -1.704672452    -1.069851169    2.274171    0.542873    -1.704132
F    -0.116809974    -1.000160109    -3.324775781    0.300082    0.095658    -2.749479
F    0.131025196    0.512392798    -0.308007602    0.7219    -1.034033    -2.603893
F    1.3881351339999999    -1.7249138099999999    0.011689427000000002    0.183021    1.292944    -2.581747
