      12
SCF Done            -183.37431201
Al            0.202672172        -2.346415411        -1.669244461
Al            1.961844330        -0.559322056        -0.649553224
Al           -0.408038006         0.290735103        -1.644148683
F             3.630721288        -0.178609416        -0.043738623
F            -0.161227974        -4.030743693        -2.241714236
F             2.168520838        -1.833009676        -2.367191789
F             1.580453095         0.706366339        -2.343026420
F            -1.477632422         1.653714731        -2.187619511
F            -1.064738286        -1.256257452        -1.065584169
F            -0.113495974        -1.014469109        -3.324911781
F             0.533995196         0.367850798        -0.138889602
F             1.089008134        -2.028788810        -0.161696573
