12
Properties=species:S:1:pos:R:3:forces:R:3 energy=-186.47477284 pbc="F F F"
Al    -0.31768643799999996    0.8601959600000001    -1.8069967359999999    -0.038085    0.306781    -0.011399
Al    -0.448840714    1.0847022530000001    1.305342636    0.004364    -0.037811    0.003935
Al    -3.119873919    0.8655950889999999    -1.878543142    0.269283    -0.667349    0.125916
F    -3.448681461    -0.07148859200000002    -3.7152563080000003    -0.14269    0.385804    -0.200499
F    -1.6537191569999998    -0.500005901    -1.922125845    0.153619    -0.089181    0.084734
F    -1.7279148869999998    2.273274003    -1.8269927830000001    -0.121686    -0.085539    -0.087038
F    -2.014450325    0.629756539    0.480946424    -0.018335    0.090094    -0.002203
F    0.585406327    1.344700043    -0.275779711    0.024136    -0.075547    0.01501
F    -0.293426375    2.763322397    1.9780845470000001    -0.024142    0.003301    -0.004449
F    0.343209115    -0.382085258    2.029328645    0.018332    0.011541    0.003017
F    -4.215805491999999    -0.011563330000000038    -0.469625965    -0.152449    0.220202    0.090384
F    0.733699827    1.309580537    -3.245627429    0.027653    -0.062298    -0.017407
