12
Properties=species:S:1:pos:R:3:forces:R:3 energy=-187.08827642 pbc="F F F"
Al    1.2856292800000002    0.072685717    2.397127073    0.010569    0.018397    -0.020596
Al    1.4139228000000001    1.3180774    -0.1079012    0.440605    0.413925    -0.079738
Al    -0.286848962    0.84515785    -2.2819187729999997    0.022402    0.012579    0.014623
F    -1.632867172    -0.33986685299999997    -2.213702406    0.010946    -0.00216    0.025471
F    2.290423253    -0.820485153    0.955957452    0.545743    -1.113507    0.47337
F    0.043474339    1.80344569    -3.771319733    0.0154    0.01378    -0.001271
F    -0.8462668099999999    2.156738153    -0.921350449    -1.15766    0.538645    -0.362627
F    2.862787357    2.679210512    -0.370106843    0.715921    0.672571    -0.129563
F    1.281518239    -0.324868395    -2.046122854    0.050213    -0.870082    -1.001125
F    0.16263611700000002    1.661118229    2.0807302389999998    -0.66213    0.295216    1.111867
F    2.521761169    0.586001476    3.603042837    0.01444    0.014252    -0.004127
F    0.050731675000000004    -1.166926352    2.795987671    -0.006451    0.006382    -0.026284
