      12
SCF Done            -187.08827642
Al            1.282772280         0.049634717         2.442581073
Al            1.299152800         1.210257400        -0.087131200
Al           -0.318177962         0.836092850        -2.321185773
F            -1.669700172        -0.369914853        -2.217086406
F             2.101252253        -0.428273153         0.790435452
F             0.050653339         1.821581690        -3.797753733
F            -0.438595810         1.969794153        -0.795370449
F             2.640306357         2.470201512        -0.329843843
F             1.265568239        -0.017749395        -1.696211854
F             0.397086117         1.559268229         1.691277239
F             2.544865169         0.596314476         3.623995837
F             0.020265675        -1.200102352         2.811550671
