12
-186.56215295
Al		-0.385098438		1.14514156		-1.818823136
Al		-0.445082981		1.032919291		1.284987401
Al		-3.002897703		0.394663678		-1.862734809
F		-3.521886255		0.301959336		-3.605078961
F		-1.305513358		-0.524223304		-1.898182138
F		-2.021409493		2.074240189		-1.839214761
F		-2.017736577		0.624949055		0.455610509
F		0.576430816		1.356788897		-0.291687175
F		-0.387794181		2.684250404		2.059096171
F		0.454882808		-0.374392471		1.989682958
F		-4.239378567		0.036099726		-0.584920113
F		0.707181419		1.459153703		-3.232845644
