12
-186.56215295
Al		-0.351721938		0.95320166		-1.822441036
Al		-0.440675014		1.086970553		1.277332036
Al		-3.038662519		0.521227489		-1.851705942
F		-3.550521561		0.349053208		-3.591345208
F		-1.439363157		-0.583830601		-1.808702245
F		-1.887804987		2.069136003		-1.922690383
F		-2.042880325		0.778745339		0.457504724
F		0.614478127		1.195457843		-0.301006611
F		-0.221491575		2.760031997		1.947765347
F		0.306366515		-0.362766458		2.081938045
F		-4.306243792		0.35154307		-0.571426865
F		0.769830327		1.094950337		-3.239282029
