12
-186.56215295
Al		-0.405036238		1.30026136		-1.809580136
Al		-0.471884114		1.032132653		1.296106636
Al		-2.957454119		0.249639289		-1.882502942
F		-3.468992061		0.200377408		-3.627668508
F		-1.169990157		-0.489826301		-1.954221645
F		-2.136660087		2.056419403		-1.791486583
F		-2.005518325		0.505625739		0.449794424
F		0.536210327		1.518219243		-0.273986111
F		-0.569569175		2.669437597		2.134455747
F		0.568293115		-0.327739258		1.942897845
F		-4.178410892		-0.25615233		-0.612050565
F		0.670953627		1.751369737		-3.215986029
