12
-186.56215295
Al		-0.376328538		1.11338306		-1.816505236
Al		-0.455079214		1.061660753		1.285997236
Al		-3.001181719		0.395879089		-1.865919942
F		-3.512892561		0.280433608		-3.608109808
F		-1.315037157		-0.540444001		-1.875865045
F		-2.002661187		2.063266803		-1.862134783
F		-2.025636325		0.652690139		0.453946124
F		0.578354527		1.344424643		-0.288535611
F		-0.382142775		2.718219197		2.033930147
F		0.427255715		-0.346600058		2.017765645
F		-4.247243992		0.07106827		-0.590176265
F		0.724194927		1.397913137		-3.228530029
