12
-186.56215295
Al		-0.405036238		1.30026136		-1.809580136
Al		-0.471884114		1.032132653		1.296106636
Al		-2.957454119		0.249639289		-1.882502942
F		-3.468992061		0.200377408		-3.627668508
F		-1.169990157		-0.489826301		-1.954221645
F		-2.136660087		2.056419403		-1.791486583
F		-2.005518325		0.505625739		0.449794424
F		0.536210327		1.518219243		-0.273986111
F		-0.569569175		2.669437597		2.134455747
F		0.568293115		-0.327739258		1.942897845
F		-4.178410892		-0.25615233		-0.612050565
F		0.670953627		1.751369737		-3.215986029
12
-186.56215295
Al		-0.400935138		1.27356446		-1.810569436
Al		-0.469483414		1.036350953		1.294662436
Al		-2.963700919		0.270530689		-1.880133942
F		-3.475263561		0.211814008		-3.624874408
F		-1.190711157		-0.497057401		-1.943027845
F		-2.117517387		2.057397603		-1.801579183
F		-2.008392325		0.526634939		0.450387524
F		0.542230927		1.493391443		-0.276064611
F		-0.542793975		2.676406397		2.120094947
F		0.548144915		-0.330433658		1.953593245
F		-4.188244192		-0.20940653		-0.608925665
F		0.678559527		1.700875937		-3.217778029
12
-186.56215295
Al		-0.396834038		1.24686756		-1.811558736
Al		-0.467082714		1.040569253		1.293218236
Al		-2.969947719		0.291422089		-1.877764942
F		-3.481535061		0.223250608		-3.622080308
F		-1.211432157		-0.504288501		-1.931834045
F		-2.098374687		2.058375803		-1.811671783
F		-2.011266325		0.547644139		0.450980624
F		0.548251527		1.468563643		-0.278143111
F		-0.516018775		2.683375197		2.105734147
F		0.527996715		-0.333128058		1.964288645
F		-4.198077492		-0.16266073		-0.605800765
F		0.686165427		1.650382137		-3.219570029
12
-186.56215295
Al		-0.392732938		1.22017066		-1.812548036
Al		-0.464682014		1.044787553		1.291774036
Al		-2.976194519		0.312313489		-1.875395942
F		-3.487806561		0.234687208		-3.619286208
F		-1.232153157		-0.511519601		-1.920640245
F		-2.079231987		2.059354003		-1.821764383
F		-2.014140325		0.568653339		0.451573724
F		0.554272127		1.443735843		-0.280221611
F		-0.489243575		2.690343997		2.091373347
F		0.507848515		-0.335822458		1.974984045
F		-4.207910792		-0.11591493		-0.602675865
F		0.693771327		1.599888337		-3.221362029
12
-186.56215295
Al		-0.388631838		1.19347376		-1.813537336
Al		-0.462281314		1.049005853		1.290329836
Al		-2.982441319		0.333204889		-1.873026942
F		-3.494078061		0.246123808		-3.616492108
F		-1.252874157		-0.518750701		-1.909446445
F		-2.060089287		2.060332203		-1.831856983
F		-2.017014325		0.589662539		0.452166824
F		0.560292727		1.418908043		-0.282300111
F		-0.462468375		2.697312797		2.077012547
F		0.487700315		-0.338516858		1.985679445
F		-4.217744092		-0.06916913		-0.599550965
F		0.701377227		1.549394537		-3.223154029
12
-186.56215295
Al		-0.384530738		1.16677686		-1.814526636
Al		-0.459880614		1.053224153		1.288885636
Al		-2.988688119		0.354096289		-1.870657942
F		-3.500349561		0.257560408		-3.613698008
F		-1.273595157		-0.525981801		-1.898252645
F		-2.040946587		2.061310403		-1.841949583
F		-2.019888325		0.610671739		0.452759924
F		0.566313327		1.394080243		-0.284378611
F		-0.435693175		2.704281597		2.062651747
F		0.467552115		-0.341211258		1.996374845
F		-4.227577392		-0.02242333		-0.596426065
F		0.708983127		1.498900737		-3.224946029
12
-186.56215295
Al		-0.380429638		1.14007996		-1.815515936
Al		-0.457479914		1.057442453		1.287441436
Al		-2.994934919		0.374987689		-1.868288942
F		-3.506621061		0.268997008		-3.610903908
F		-1.294316157		-0.533212901		-1.887058845
F		-2.021803887		2.062288603		-1.852042183
F		-2.022762325		0.631680939		0.453353024
F		0.572333927		1.369252443		-0.286457111
F		-0.408917975		2.711250397		2.048290947
F		0.447403915		-0.343905658		2.007070245
F		-4.237410692		0.02432247		-0.593301165
F		0.716589027		1.448406937		-3.226738029
12
-186.56215295
Al		-0.376328538		1.11338306		-1.816505236
Al		-0.455079214		1.061660753		1.285997236
Al		-3.001181719		0.395879089		-1.865919942
F		-3.512892561		0.280433608		-3.608109808
F		-1.315037157		-0.540444001		-1.875865045
F		-2.002661187		2.063266803		-1.862134783
F		-2.025636325		0.652690139		0.453946124
F		0.578354527		1.344424643		-0.288535611
F		-0.382142775		2.718219197		2.033930147
F		0.427255715		-0.346600058		2.017765645
F		-4.247243992		0.07106827		-0.590176265
F		0.724194927		1.397913137		-3.228530029
12
-186.56215295
Al		-0.372227438		1.08668616		-1.817494536
Al		-0.452678514		1.065879053		1.284553036
Al		-3.007428519		0.416770489		-1.863550942
F		-3.519164061		0.291870208		-3.605315708
F		-1.335758157		-0.547675101		-1.864671245
F		-1.983518487		2.064245003		-1.872227383
F		-2.028510325		0.673699339		0.454539224
F		0.584375127		1.319596843		-0.290614111
F		-0.355367575		2.725187997		2.019569347
F		0.407107515		-0.349294458		2.028461045
F		-4.257077292		0.11781407		-0.587051365
F		0.731800827		1.347419337		-3.230322029
12
-186.56215295
Al		-0.368126338		1.05998926		-1.818483836
Al		-0.450277814		1.070097353		1.283108836
Al		-3.013675319		0.437661889		-1.861181942
F		-3.525435561		0.303306808		-3.602521608
F		-1.356479157		-0.554906201		-1.853477445
F		-1.964375787		2.065223203		-1.882319983
F		-2.031384325		0.694708539		0.455132324
F		0.590395727		1.294769043		-0.292692611
F		-0.328592375		2.732156797		2.005208547
F		0.386959315		-0.351988858		2.039156445
F		-4.266910592		0.16455987		-0.583926465
F		0.739406727		1.296925537		-3.232114029
12
-186.56215295
Al		-0.364025238		1.03329236		-1.819473136
Al		-0.447877114		1.074315653		1.281664636
Al		-3.019922119		0.458553289		-1.858812942
F		-3.531707061		0.314743408		-3.599727508
F		-1.377200157		-0.562137301		-1.842283645
F		-1.945233087		2.066201403		-1.892412583
F		-2.034258325		0.715717739		0.455725424
F		0.596416327		1.269941243		-0.294771111
F		-0.301817175		2.739125597		1.990847747
F		0.366811115		-0.354683258		2.049851845
F		-4.276743892		0.21130567		-0.580801565
F		0.747012627		1.246431737		-3.233906029
12
-186.56215295
Al		-0.359924138		1.00659546		-1.820462436
Al		-0.445476414		1.078533953		1.280220436
Al		-3.026168919		0.479444689		-1.856443942
F		-3.537978561		0.326180008		-3.596933408
F		-1.397921157		-0.569368401		-1.831089845
F		-1.926090387		2.067179603		-1.902505183
F		-2.037132325		0.736726939		0.456318524
F		0.602436927		1.245113443		-0.296849611
F		-0.275041975		2.746094397		1.976486947
F		0.346662915		-0.357377658		2.060547245
F		-4.286577192		0.25805147		-0.577676665
F		0.754618527		1.195937937		-3.235698029
12
-186.56215295
Al		-0.355823038		0.97989856		-1.821451736
Al		-0.443075714		1.082752253		1.278776236
Al		-3.032415719		0.500336089		-1.854074942
F		-3.544250061		0.337616608		-3.594139308
F		-1.418642157		-0.576599501		-1.819896045
F		-1.906947687		2.068157803		-1.912597783
F		-2.040006325		0.757736139		0.456911624
F		0.608457527		1.220285643		-0.298928111
F		-0.248266775		2.753063197		1.962126147
F		0.326514715		-0.360072058		2.071242645
F		-4.296410492		0.30479727		-0.574551765
F		0.762224427		1.145444137		-3.237490029
12
-186.56215295
Al		-0.351721938		0.95320166		-1.822441036
Al		-0.440675014		1.086970553		1.277332036
Al		-3.038662519		0.521227489		-1.851705942
F		-3.550521561		0.349053208		-3.591345208
F		-1.439363157		-0.583830601		-1.808702245
F		-1.887804987		2.069136003		-1.922690383
F		-2.042880325		0.778745339		0.457504724
F		0.614478127		1.195457843		-0.301006611
F		-0.221491575		2.760031997		1.947765347
F		0.306366515		-0.362766458		2.081938045
F		-4.306243792		0.35154307		-0.571426865
F		0.769830327		1.094950337		-3.239282029
12
-186.56215295
Al		-0.347620838		0.92650476		-1.823430336
Al		-0.438274314		1.091188853		1.275887836
Al		-3.044909319		0.542118889		-1.849336942
F		-3.556793061		0.360489808		-3.588551108
F		-1.460084157		-0.591061701		-1.797508445
F		-1.868662287		2.070114203		-1.932782983
F		-2.045754325		0.799754539		0.458097824
F		0.620498727		1.170630043		-0.303085111
F		-0.194716375		2.767000797		1.933404547
F		0.286218315		-0.365460858		2.092633445
F		-4.316077092		0.39828887		-0.568301965
F		0.777436227		1.044456537		-3.241074029
12
-186.56215295
Al		-0.343519738		0.89980786		-1.824419636
Al		-0.435873614		1.095407153		1.274443636
Al		-3.051156119		0.563010289		-1.846967942
F		-3.563064561		0.371926408		-3.585757008
F		-1.480805157		-0.598292801		-1.786314645
F		-1.849519587		2.071092403		-1.942875583
F		-2.048628325		0.820763739		0.458690924
F		0.626519327		1.145802243		-0.305163611
F		-0.167941175		2.773969597		1.919043747
F		0.266070115		-0.368155258		2.103328845
F		-4.325910392		0.44503467		-0.565177065
F		0.785042127		0.993962737		-3.242866029
12
-186.56215295
Al		-0.339418638		0.87311096		-1.825408936
Al		-0.433472914		1.099625453		1.272999436
Al		-3.057402919		0.583901689		-1.844598942
F		-3.569336061		0.383363008		-3.582962908
F		-1.501526157		-0.605523901		-1.775120845
F		-1.830376887		2.072070603		-1.952968183
F		-2.051502325		0.841772939		0.459284024
F		0.632539927		1.120974443		-0.307242111
F		-0.141165975		2.780938397		1.904682947
F		0.245921915		-0.370849658		2.114024245
F		-4.335743692		0.49178047		-0.562052165
F		0.792648027		0.943468937		-3.244658029
12
-186.56215295
Al		-0.335317538		0.84641406		-1.826398236
Al		-0.431072214		1.103843753		1.271555236
Al		-3.063649719		0.604793089		-1.842229942
F		-3.575607561		0.394799608		-3.580168808
F		-1.522247157		-0.612755001		-1.763927045
F		-1.811234187		2.073048803		-1.963060783
F		-2.054376325		0.862782139		0.459877124
F		0.638560527		1.096146643		-0.309320611
F		-0.114390775		2.787907197		1.890322147
F		0.225773715		-0.373544058		2.124719645
F		-4.345576992		0.53852627		-0.558927265
F		0.800253927		0.892975137		-3.246450029
12
-186.56215295
Al		-0.331216438		0.81971716		-1.827387536
Al		-0.428671514		1.108062053		1.270111036
Al		-3.069896519		0.625684489		-1.839860942
F		-3.581879061		0.406236208		-3.577374708
F		-1.542968157		-0.619986101		-1.752733245
F		-1.792091487		2.074027003		-1.973153383
F		-2.057250325		0.883791339		0.460470224
F		0.644581127		1.071318843		-0.311399111
F		-0.087615575		2.794875997		1.875961347
F		0.205625515		-0.376238458		2.135415045
F		-4.355410292		0.58527207		-0.555802365
F		0.807859827		0.842481337		-3.248242029
12
-186.56215295
Al		-0.327115338		0.79302026		-1.828376836
Al		-0.426270814		1.112280353		1.268666836
Al		-3.076143319		0.646575889		-1.837491942
F		-3.588150561		0.417672808		-3.574580608
F		-1.563689157		-0.627217201		-1.741539445
F		-1.772948787		2.075005203		-1.983245983
F		-2.060124325		0.904800539		0.461063324
F		0.650601727		1.046491043		-0.313477611
F		-0.060840375		2.801844797		1.861600547
F		0.185477315		-0.378932858		2.146110445
F		-4.365243592		0.63201787		-0.552677465
F		0.815465727		0.791987537		-3.250034029
