      12
SCF Done            -184.85843188
Al           -1.802412561         2.538654020        -1.118542091
Al           -0.391231255        -0.175932594        -2.407932474
Al           -2.189153176        -0.131862718        -0.621578837
F            -0.788054041         3.679491936        -0.128199257
F            -3.006878147         3.178393393        -2.326969192
F            -1.214682680        -1.641915627        -1.899097861
F            -2.648631262         1.586597183         0.299603962
F            -3.149438863        -1.110225632         0.535600553
F             0.710880298        -0.670684141        -3.781487904
F            -0.537921725         1.692272414        -2.240039131
F            -2.482040957         0.468848451        -2.274394628
F            -0.339798668         0.151237839        -0.360525908
