12
Properties=species:S:1:pos:R:3:forces:R:3 energy=-183.06940609 pbc="F F F"
Al    0.7294281799999999    -0.37146268299999996    2.324871573    0.086749    2.253747    -4.808384
Al    1.1948945    1.25961    -0.3932525    -6.679832    -1.002527    -10.424694
Al    -0.384605062    0.8181332499999999    -2.407223773    -1.79389    -0.42763    -2.450101
F    -1.579185672    -0.288730453    -2.224974606    3.322477    3.040611    -0.423272
F    2.139890253    -0.44052345299999995    0.765285952    0.247262    -0.974265    2.43677
F    0.028233638999999998    1.76091429    -3.706314833    -1.007273    -2.27554    3.115063
F    -0.28057181    1.921360753    -0.6922035489999999    4.280516    -1.147701    2.456629
F    2.566122557    2.398273512    -0.311485443    0.544993    0.370731    0.213041
F    1.302381739    0.07518240500000001    -1.528971254    1.007011    2.670154    4.187053
F    0.385551617    1.605532929    1.692650039    0.174956    -0.889936    2.474988
F    2.931000969    0.7710480759999999    3.968949437    2.226791    0.868761    2.295769
F    0.281059175    -0.937551852    2.725634571    -2.409761    -2.486407    0.927138
