      12
SCF Done            -167.66818459
Al           -1.707487189         2.564503085        -1.235503606
Al           -0.527320370        -0.003804396        -2.341114756
Al           -2.193599986        -0.342834112        -0.512691449
F            -0.815066080         3.765537311        -0.199523773
F            -3.033291170         3.124704666        -2.339862519
F            -1.428840088        -1.672196637        -1.767143754
F            -2.462185280         1.449130110         0.087584985
F            -3.260441730        -1.293963346         0.596608964
F             0.612585090        -0.505937660        -3.653297200
F            -0.294747293         1.890128122        -2.290763522
F            -2.441317757         0.513837351        -2.284497028
F            -0.278910363         0.078260980        -0.394615988
