      12
SCF Done            -186.34391028
Al           -1.707487261         2.564503020        -1.235503691
Al           -0.527320355        -0.003804394        -2.341114574
Al           -2.193599976        -0.342834118        -0.512691437
F            -0.815066141         3.765537236        -0.199523857
F            -3.033291247         3.124704593        -2.339862592
F            -1.428840080        -1.672196627        -1.767143761
F            -2.462185362         1.449130083         0.087584762
F            -3.260441563        -1.293963432         0.596609053
F             0.612585198        -0.505937741        -3.653297104
F            -0.294747325         1.890128114        -2.290763631
F            -2.441317757         0.513837351        -2.284497028
F            -0.278910368         0.078261039        -0.394616008
